                                  SEAWAT Version 4
      U.S. GEOLOGICAL SURVEY MODULAR FINITE-DIFFERENCE GROUND-WATER FLOW MODEL
                           VERSION 4.00.03 09/21/2009


 This model run produced both GLOBAL and LIST files.  This is the LIST file.

  ----- 
 | M T | Conversion from Groundwater Vistas                                              
 | 3 D | MT3D Model                                                                      
  ----- 
 THE TRANSPORT MODEL CONSISTS OF    23 LAYER(S)    1 ROW(S)  100 COLUMN(S)
 NUMBER OF STRESS PERIOD(S) FOR TRANSPORT SIMULATION =    1
 NUMBER OF ALL COMPONENTS INCLUDED IN SIMULATION =    2
 NUMBER OF MOBILE COMPONENTS INCLUDED IN SIMULATION =    2
 UNIT FOR TIME IS D   ;  UNIT FOR LENGTH IS M   ;  UNIT FOR MASS IS KG  
 OPTIONAL PACKAGES INCLUDED IN CURRENT SIMULATION:
  o ADV   ON UNIT 82
  o DSP   ON UNIT 83
  o SSM   ON UNIT 84
  o RCT   ON UNIT 85
  o GCG   ON UNIT 86


 VDF -- VARIABLE DENSITY FLOW, VERSION 1, 2/13/2004
         INPUT READ FROM UNIT 80

 COUPLING BETWEEN FLOW AND TRANSPORT IS EXPLICIT
 VARIABLE-DENSITY WATER-TABLE CORRECTIONS NOT ADDED
 MT3DMS SPECIES USED IN EQUATION OF STATE FOR FLUID DENSITY:          1
 AN UPSTREAM-WEIGHTED ALGORITHM IS USED TO CALCULATE FLUID DENSITY TERMS THAT CONSERVE MASS
  1000.     REFERENCE DENSITY
 0.7000     DENSITY SLOPE FOR EQUATION OF STATE
 DENSITY EQUATION OF STATE
 RHO =     1000.00    
  + 0.7000     * ( CONC(   1) -  0.000     )



 FIRSTDT SPECIFIED BY USER IN THE VDF FILE IS:   0.1000000E-02
 BTN5 -- BASIC TRANSPORT PACKAGE, VERSION 5, OCTOBER 2006, INPUT READ FROM UNIT 81
      48602 ELEMENTS OF THE  X ARRAY USED BY THE BTN PACKAGE
       4623 ELEMENTS OF THE IX ARRAY USED BY THE BTN PACKAGE

 FLOW MODEL IS TRANSIENT

 ADV5 -- ADVECTION PACKAGE, VERSION 5, FEBRUARY 2005, INPUT READ FROM UNIT 82
 ADVECTION IS SOLVED WITH THE UPSTREAM FINITE DIFFERENCE SCHEME
 COURANT NUMBER ALLOWED IN SOLVING THE ADVECTION TERM = 0.750    
          0 ELEMENTS OF THE  X ARRAY USED BY THE ADV PACKAGE
          0 ELEMENTS OF THE IX ARRAY USED BY THE ADV PACKAGE

 DSP5 -- DISPERSION PACKAGE, VERSION 5, OCTOBER 2006, INPUT READ FROM UNIT 83
      34546 ELEMENTS OF THE  X ARRAY USED BY THE DSP PACKAGE
          0 ELEMENTS OF THE IX ARRAY USED BY THE DSP PACKAGE

 SSM5 -- SINK & SOURCE MIXING PACKAGE, VERSION 5, OCTOBER 2006, INPUT READ FROM UNIT 84
 HEADER LINE OF THE SSM PACKAGE INPUT FILE:
  T F T F F F                                                                                                                                                                                            
 MAJOR STRESS COMPONENTS PRESENT IN THE FLOW MODEL:
  o WELL
  o RECHARGE
 MAXIMUM NUMBER OF POINT SINKS/SOURCES =      37
        818 ELEMENTS OF THE  X ARRAY USED BY THE SSM PACKAGE
        100 ELEMENTS OF THE IX ARRAY BY THE SSM PACKAGE

 RCT5 -- CHEMICAL REACTION PACKAGE, VERSION 5, FEBRUARY 2005, INPUT READ FROM UNIT 85
 NO SORPTION [OR DUAL-DOMAIN MODEL] IS SIMULATED
 ZEROTH-ORDER DECAY OR PRODUCTION IS SIMULATED
 REACTION COEFFICIENTS ASSIGNED CELL-BY-CELL
 INITIAL SORBED/IMMOBILE PHASE CONCENTRATION ASSIGNED BY DEFAULT
       9200 ELEMENTS OF THE  X ARRAY USED BY THE RCT PACKAGE
          0 ELEMENTS OF THE IX ARRAY USED BY THE RCT PACKAGE

 GCG5 -- GENERALIZED CONJUGATE GRADIENT SOLVER PACKAGE, VERSION 5, FEBRUARY 2005 INPUT READ FROM UNIT 86
 MAXIMUM OF    1 OUTER ITERATIONS
        AND   50 INNER ITERATIONS ALLOWED FOR CLOSURE
 THE PRECONDITIONING TYPE SELECTED IS SSOR.
 DISPERSION CROSS TERMS LUMPED INTO RIGHT-HAND-SIDE
      34550 ELEMENTS OF THE  X ARRAY USED BY THE GCG PACKAGE
        150 ELEMENTS OF THE IX ARRAY USED BY THE GCG PACKAGE

 
 # MODFLOW2000 Basic Package                                                     
 #MODFLOW Data Set Created by Groundwater Vistas                                 
 #
   23 LAYERS         1 ROWS       100 COLUMNS
    1 STRESS PERIOD(S) IN SIMULATION

 BAS6 -- BASIC PACKAGE, VERSION 6, 1/11/2000 INPUT READ FROM UNIT    1
        115 ELEMENTS IN IR ARRAY ARE USED BY BAS

 WEL6 -- WELL PACKAGE, VERSION 6, 1/11/2000 INPUT READ FROM UNIT   12
 # MODFLOW2000 Well Package
     0 Named Parameters         0 List entries
 MAXIMUM OF      7 ACTIVE WELLS AT ONE TIME
 CELL-BY-CELL FLOWS WILL BE SAVED ON UNIT   54
         28 ELEMENTS IN RX ARRAY ARE USED BY WEL

 RCH6 -- RECHARGE PACKAGE, VERSION 6, 1/11/2000 INPUT READ FROM UNIT   18
 # MODFLOW2000 Recharge Package
 No named parameters
 OPTION 3 -- RECHARGE TO HIGHEST ACTIVE NODE IN EACH VERTICAL COLUMN
 CELL-BY-CELL FLOWS WILL BE SAVED ON UNIT   51
        100 ELEMENTS IN RX ARRAY ARE USED BY RCH
        100 ELEMENTS IN IR ARRAY ARE USED BY RCH

        128  ELEMENTS OF RX ARRAY USED OUT OF        128
          0  ELEMENTS OF RZ ARRAY USED OUT OF          1
        215  ELEMENTS OF IR ARRAY USED OUT OF        215
1
 # MODFLOW2000 Basic Package                                                     
 #MODFLOW Data Set Created by Groundwater Vistas                                 



                     BOUNDARY ARRAY FOR LAYER   1
 READING ON UNIT    1 WITH FORMAT: (25I3)              



                     BOUNDARY ARRAY FOR LAYER   2
 READING ON UNIT    1 WITH FORMAT: (25I3)              



                     BOUNDARY ARRAY FOR LAYER   3
 READING ON UNIT    1 WITH FORMAT: (25I3)              



                     BOUNDARY ARRAY FOR LAYER   4
 READING ON UNIT    1 WITH FORMAT: (25I3)              



                     BOUNDARY ARRAY FOR LAYER   5
 READING ON UNIT    1 WITH FORMAT: (25I3)              



                     BOUNDARY ARRAY FOR LAYER   6
 READING ON UNIT    1 WITH FORMAT: (25I3)              



                     BOUNDARY ARRAY FOR LAYER   7
 READING ON UNIT    1 WITH FORMAT: (25I3)              



                     BOUNDARY ARRAY FOR LAYER   8
 READING ON UNIT    1 WITH FORMAT: (25I3)              



                     BOUNDARY ARRAY FOR LAYER   9
 READING ON UNIT    1 WITH FORMAT: (25I3)              



                     BOUNDARY ARRAY FOR LAYER  10
 READING ON UNIT    1 WITH FORMAT: (25I3)              



                     BOUNDARY ARRAY FOR LAYER  11
 READING ON UNIT    1 WITH FORMAT: (25I3)              



                     BOUNDARY ARRAY FOR LAYER  12
 READING ON UNIT    1 WITH FORMAT: (25I3)              



                     BOUNDARY ARRAY FOR LAYER  13
 READING ON UNIT    1 WITH FORMAT: (25I3)              



                     BOUNDARY ARRAY FOR LAYER  14
 READING ON UNIT    1 WITH FORMAT: (25I3)              



                     BOUNDARY ARRAY FOR LAYER  15
 READING ON UNIT    1 WITH FORMAT: (25I3)              



                     BOUNDARY ARRAY FOR LAYER  16
 READING ON UNIT    1 WITH FORMAT: (25I3)              



                     BOUNDARY ARRAY FOR LAYER  17
 READING ON UNIT    1 WITH FORMAT: (25I3)              



                     BOUNDARY ARRAY FOR LAYER  18
 READING ON UNIT    1 WITH FORMAT: (25I3)              



                     BOUNDARY ARRAY FOR LAYER  19
 READING ON UNIT    1 WITH FORMAT: (25I3)              



                     BOUNDARY ARRAY FOR LAYER  20
 READING ON UNIT    1 WITH FORMAT: (25I3)              



                     BOUNDARY ARRAY FOR LAYER  21
 READING ON UNIT    1 WITH FORMAT: (25I3)              



                     BOUNDARY ARRAY FOR LAYER  22
 READING ON UNIT    1 WITH FORMAT: (25I3)              



                     BOUNDARY ARRAY FOR LAYER  23
 READING ON UNIT    1 WITH FORMAT: (25I3)              

 AQUIFER HEAD WILL BE SET TO  999.00     AT ALL NO-FLOW NODES (IBOUND=0).



                       INITIAL HEAD FOR LAYER   1
 READING BINARY ON UNIT   13



                       INITIAL HEAD FOR LAYER   2
 READING BINARY ON UNIT   13



                       INITIAL HEAD FOR LAYER   3
 READING BINARY ON UNIT   13



                       INITIAL HEAD FOR LAYER   4
 READING BINARY ON UNIT   13



                       INITIAL HEAD FOR LAYER   5
 READING BINARY ON UNIT   13



                       INITIAL HEAD FOR LAYER   6
 READING BINARY ON UNIT   13



                       INITIAL HEAD FOR LAYER   7
 READING BINARY ON UNIT   13



                       INITIAL HEAD FOR LAYER   8
 READING BINARY ON UNIT   13



                       INITIAL HEAD FOR LAYER   9
 READING BINARY ON UNIT   13



                       INITIAL HEAD FOR LAYER  10
 READING BINARY ON UNIT   13



                       INITIAL HEAD FOR LAYER  11
 READING BINARY ON UNIT   13



                       INITIAL HEAD FOR LAYER  12
 READING BINARY ON UNIT   13



                       INITIAL HEAD FOR LAYER  13
 READING BINARY ON UNIT   13



                       INITIAL HEAD FOR LAYER  14
 READING BINARY ON UNIT   13



                       INITIAL HEAD FOR LAYER  15
 READING BINARY ON UNIT   13



                       INITIAL HEAD FOR LAYER  16
 READING BINARY ON UNIT   13



                       INITIAL HEAD FOR LAYER  17
 READING BINARY ON UNIT   13



                       INITIAL HEAD FOR LAYER  18
 READING BINARY ON UNIT   13



                       INITIAL HEAD FOR LAYER  19
 READING BINARY ON UNIT   13



                       INITIAL HEAD FOR LAYER  20
 READING BINARY ON UNIT   13



                       INITIAL HEAD FOR LAYER  21
 READING BINARY ON UNIT   13



                       INITIAL HEAD FOR LAYER  22
 READING BINARY ON UNIT   13



                       INITIAL HEAD FOR LAYER  23
 READING BINARY ON UNIT   13

 OUTPUT CONTROL IS SPECIFIED EVERY TIME STEP
 HEAD PRINT FORMAT CODE IS   0    DRAWDOWN PRINT FORMAT CODE IS   0
 HEADS WILL BE SAVED ON UNIT   30    DRAWDOWNS WILL BE SAVED ON UNIT    0
 LAYER NUMBER  AQUIFER TYPE
 ------------  ------------
       1            0
       2            0
       3            0
       4            0
       5            0
       6            0
       7            0
       8            0
       9            0
      10            0
      11            0
      12            0
      13            0
      14            0
      15            0
      16            0
      17            0
      18            0
      19            0
      20            0
      21            0
      22            0
      23            0
                                       WIDTH ALONG ROWS (DELR)  =   100.0000    
                                       WIDTH ALONG COLS (DELC)  =   100.0000    
                                       TOP ELEV. OF 1ST LAYER   =   2.500000    
                                       CELL THICKNESS (DZ)      =   5.000000     FOR LAYER  1
                                       CELL THICKNESS (DZ)      =   5.000000     FOR LAYER  2
                                       CELL THICKNESS (DZ)      =   5.000000     FOR LAYER  3
                                       CELL THICKNESS (DZ)      =   5.000000     FOR LAYER  4
                                       CELL THICKNESS (DZ)      =   5.000000     FOR LAYER  5
                                       CELL THICKNESS (DZ)      =   5.000000     FOR LAYER  6
                                       CELL THICKNESS (DZ)      =   5.000000     FOR LAYER  7
                                       CELL THICKNESS (DZ)      =   5.000000     FOR LAYER  8
                                       CELL THICKNESS (DZ)      =   5.000000     FOR LAYER  9
                                       CELL THICKNESS (DZ)      =   5.000000     FOR LAYER 10
                                       CELL THICKNESS (DZ)      =   5.000000     FOR LAYER 11
                                       CELL THICKNESS (DZ)      =   5.000000     FOR LAYER 12
                                       CELL THICKNESS (DZ)      =   5.000000     FOR LAYER 13
                                       CELL THICKNESS (DZ)      =   5.000000     FOR LAYER 14
                                       CELL THICKNESS (DZ)      =   5.000000     FOR LAYER 15
                                       CELL THICKNESS (DZ)      =   5.000000     FOR LAYER 16
                                       CELL THICKNESS (DZ)      =   5.000000     FOR LAYER 17
                                       CELL THICKNESS (DZ)      =   5.000000     FOR LAYER 18
                                       CELL THICKNESS (DZ)      =   5.000000     FOR LAYER 19
                                       CELL THICKNESS (DZ)      =   5.000000     FOR LAYER 20
                                       CELL THICKNESS (DZ)      =   5.000000     FOR LAYER 21
                                       CELL THICKNESS (DZ)      =   5.000000     FOR LAYER 22
                                       CELL THICKNESS (DZ)      =   5.000000     FOR LAYER 23
                                       POROSITY                 =  0.2000000     FOR LAYER  1
                                       POROSITY                 =  0.2000000     FOR LAYER  2
                                       POROSITY                 =  0.2000000     FOR LAYER  3
                                       POROSITY                 =  0.2000000     FOR LAYER  4
                                       POROSITY                 =  0.2000000     FOR LAYER  5
                                       POROSITY                 =  0.2000000     FOR LAYER  6
                                       POROSITY                 =  0.2000000     FOR LAYER  7
                                       POROSITY                 =  0.2000000     FOR LAYER  8
                                       POROSITY                 =  0.2000000     FOR LAYER  9
                                       POROSITY                 =  0.2000000     FOR LAYER 10
                                       POROSITY                 =  0.2000000     FOR LAYER 11
                                       POROSITY                 =  0.2000000     FOR LAYER 12
                                       POROSITY                 =  0.2000000     FOR LAYER 13
                                       POROSITY                 =  0.2000000     FOR LAYER 14
                                       POROSITY                 =  0.2000000     FOR LAYER 15
                                       POROSITY                 =  0.2000000     FOR LAYER 16
                                       POROSITY                 =  0.2000000     FOR LAYER 17
                                       POROSITY                 =  0.2000000     FOR LAYER 18
                                       POROSITY                 =  0.2000000     FOR LAYER 19
                                       POROSITY                 =  0.2000000     FOR LAYER 20
                                       POROSITY                 =  0.2000000     FOR LAYER 21
                                       POROSITY                 =  0.2000000     FOR LAYER 22
                                       POROSITY                 =  0.2000000     FOR LAYER 23

                     CONCN. BOUNDARY ARRAY    FOR LAYER  1 READ ON UNIT 81 USING FORMAT: "(25I3)              "
                     ------------------------------------------------------------------------------------------

                     CONCN. BOUNDARY ARRAY    FOR LAYER  2 READ ON UNIT 81 USING FORMAT: "(25I3)              "
                     ------------------------------------------------------------------------------------------

                     CONCN. BOUNDARY ARRAY    FOR LAYER  3 READ ON UNIT 81 USING FORMAT: "(25I3)              "
                     ------------------------------------------------------------------------------------------

                     CONCN. BOUNDARY ARRAY    FOR LAYER  4 READ ON UNIT 81 USING FORMAT: "(25I3)              "
                     ------------------------------------------------------------------------------------------

                     CONCN. BOUNDARY ARRAY    FOR LAYER  5 READ ON UNIT 81 USING FORMAT: "(25I3)              "
                     ------------------------------------------------------------------------------------------

                     CONCN. BOUNDARY ARRAY    FOR LAYER  6 READ ON UNIT 81 USING FORMAT: "(25I3)              "
                     ------------------------------------------------------------------------------------------

                     CONCN. BOUNDARY ARRAY    FOR LAYER  7 READ ON UNIT 81 USING FORMAT: "(25I3)              "
                     ------------------------------------------------------------------------------------------

                     CONCN. BOUNDARY ARRAY    FOR LAYER  8 READ ON UNIT 81 USING FORMAT: "(25I3)              "
                     ------------------------------------------------------------------------------------------

                     CONCN. BOUNDARY ARRAY    FOR LAYER  9 READ ON UNIT 81 USING FORMAT: "(25I3)              "
                     ------------------------------------------------------------------------------------------

                     CONCN. BOUNDARY ARRAY    FOR LAYER 10 READ ON UNIT 81 USING FORMAT: "(25I3)              "
                     ------------------------------------------------------------------------------------------

                     CONCN. BOUNDARY ARRAY    FOR LAYER 11 READ ON UNIT 81 USING FORMAT: "(25I3)              "
                     ------------------------------------------------------------------------------------------

                     CONCN. BOUNDARY ARRAY    FOR LAYER 12 READ ON UNIT 81 USING FORMAT: "(25I3)              "
                     ------------------------------------------------------------------------------------------

                     CONCN. BOUNDARY ARRAY    FOR LAYER 13 READ ON UNIT 81 USING FORMAT: "(25I3)              "
                     ------------------------------------------------------------------------------------------

                     CONCN. BOUNDARY ARRAY    FOR LAYER 14 READ ON UNIT 81 USING FORMAT: "(25I3)              "
                     ------------------------------------------------------------------------------------------

                     CONCN. BOUNDARY ARRAY    FOR LAYER 15 READ ON UNIT 81 USING FORMAT: "(25I3)              "
                     ------------------------------------------------------------------------------------------

                     CONCN. BOUNDARY ARRAY    FOR LAYER 16 READ ON UNIT 81 USING FORMAT: "(25I3)              "
                     ------------------------------------------------------------------------------------------

                     CONCN. BOUNDARY ARRAY    FOR LAYER 17 READ ON UNIT 81 USING FORMAT: "(25I3)              "
                     ------------------------------------------------------------------------------------------

                     CONCN. BOUNDARY ARRAY    FOR LAYER 18 READ ON UNIT 81 USING FORMAT: "(25I3)              "
                     ------------------------------------------------------------------------------------------

                     CONCN. BOUNDARY ARRAY    FOR LAYER 19 READ ON UNIT 81 USING FORMAT: "(25I3)              "
                     ------------------------------------------------------------------------------------------

                     CONCN. BOUNDARY ARRAY    FOR LAYER 20 READ ON UNIT 81 USING FORMAT: "(25I3)              "
                     ------------------------------------------------------------------------------------------

                     CONCN. BOUNDARY ARRAY    FOR LAYER 21 READ ON UNIT 81 USING FORMAT: "(25I3)              "
                     ------------------------------------------------------------------------------------------

                     CONCN. BOUNDARY ARRAY    FOR LAYER 22 READ ON UNIT 81 USING FORMAT: "(25I3)              "
                     ------------------------------------------------------------------------------------------

                     CONCN. BOUNDARY ARRAY    FOR LAYER 23 READ ON UNIT 81 USING FORMAT: "(25I3)              "
                     ------------------------------------------------------------------------------------------

                     INITIAL CONC.: COMP.  01 FOR LAYER  1 READ ON UNIT 81 USING FORMAT: "(10E12.4)           "
                     ------------------------------------------------------------------------------------------

                     INITIAL CONC.: COMP.  01 FOR LAYER  2 READ ON UNIT 81 USING FORMAT: "(10E12.4)           "
                     ------------------------------------------------------------------------------------------

                     INITIAL CONC.: COMP.  01 FOR LAYER  3 READ ON UNIT 81 USING FORMAT: "(10E12.4)           "
                     ------------------------------------------------------------------------------------------

                     INITIAL CONC.: COMP.  01 FOR LAYER  4 READ ON UNIT 81 USING FORMAT: "(10E12.4)           "
                     ------------------------------------------------------------------------------------------

                     INITIAL CONC.: COMP.  01 FOR LAYER  5 READ ON UNIT 81 USING FORMAT: "(10E12.4)           "
                     ------------------------------------------------------------------------------------------

                     INITIAL CONC.: COMP.  01 FOR LAYER  6 READ ON UNIT 81 USING FORMAT: "(10E12.4)           "
                     ------------------------------------------------------------------------------------------

                     INITIAL CONC.: COMP.  01 FOR LAYER  7 READ ON UNIT 81 USING FORMAT: "(10E12.4)           "
                     ------------------------------------------------------------------------------------------

                     INITIAL CONC.: COMP.  01 FOR LAYER  8 READ ON UNIT 81 USING FORMAT: "(10E12.4)           "
                     ------------------------------------------------------------------------------------------

                     INITIAL CONC.: COMP.  01 FOR LAYER  9 READ ON UNIT 81 USING FORMAT: "(10E12.4)           "
                     ------------------------------------------------------------------------------------------

                     INITIAL CONC.: COMP.  01 FOR LAYER 10 READ ON UNIT 81 USING FORMAT: "(10E12.4)           "
                     ------------------------------------------------------------------------------------------

                     INITIAL CONC.: COMP.  01 FOR LAYER 11 READ ON UNIT 81 USING FORMAT: "(10E12.4)           "
                     ------------------------------------------------------------------------------------------

                     INITIAL CONC.: COMP.  01 FOR LAYER 12 READ ON UNIT 81 USING FORMAT: "(10E12.4)           "
                     ------------------------------------------------------------------------------------------

                     INITIAL CONC.: COMP.  01 FOR LAYER 13 READ ON UNIT 81 USING FORMAT: "(10E12.4)           "
                     ------------------------------------------------------------------------------------------

                     INITIAL CONC.: COMP.  01 FOR LAYER 14 READ ON UNIT 81 USING FORMAT: "(10E12.4)           "
                     ------------------------------------------------------------------------------------------

                     INITIAL CONC.: COMP.  01 FOR LAYER 15 READ ON UNIT 81 USING FORMAT: "(10E12.4)           "
                     ------------------------------------------------------------------------------------------

                     INITIAL CONC.: COMP.  01 FOR LAYER 16 READ ON UNIT 81 USING FORMAT: "(10E12.4)           "
                     ------------------------------------------------------------------------------------------

                     INITIAL CONC.: COMP.  01 FOR LAYER 17 READ ON UNIT 81 USING FORMAT: "(10E12.4)           "
                     ------------------------------------------------------------------------------------------

                     INITIAL CONC.: COMP.  01 FOR LAYER 18 READ ON UNIT 81 USING FORMAT: "(10E12.4)           "
                     ------------------------------------------------------------------------------------------

                     INITIAL CONC.: COMP.  01 FOR LAYER 19 READ ON UNIT 81 USING FORMAT: "(10E12.4)           "
                     ------------------------------------------------------------------------------------------

                     INITIAL CONC.: COMP.  01 FOR LAYER 20 READ ON UNIT 81 USING FORMAT: "(10E12.4)           "
                     ------------------------------------------------------------------------------------------

                     INITIAL CONC.: COMP.  01 FOR LAYER 21 READ ON UNIT 81 USING FORMAT: "(10E12.4)           "
                     ------------------------------------------------------------------------------------------

                     INITIAL CONC.: COMP.  01 FOR LAYER 22 READ ON UNIT 81 USING FORMAT: "(10E12.4)           "
                     ------------------------------------------------------------------------------------------

                     INITIAL CONC.: COMP.  01 FOR LAYER 23 READ ON UNIT 81 USING FORMAT: "(10E12.4)           "
                     ------------------------------------------------------------------------------------------
                                       INITIAL CONC.: COMP.  02 =   0.000000     FOR LAYER  1
                                       INITIAL CONC.: COMP.  02 =   0.000000     FOR LAYER  2
                                       INITIAL CONC.: COMP.  02 =   0.000000     FOR LAYER  3
                                       INITIAL CONC.: COMP.  02 =   0.000000     FOR LAYER  4
                                       INITIAL CONC.: COMP.  02 =   0.000000     FOR LAYER  5
                                       INITIAL CONC.: COMP.  02 =   0.000000     FOR LAYER  6
                                       INITIAL CONC.: COMP.  02 =   0.000000     FOR LAYER  7
                                       INITIAL CONC.: COMP.  02 =   0.000000     FOR LAYER  8
                                       INITIAL CONC.: COMP.  02 =   0.000000     FOR LAYER  9
                                       INITIAL CONC.: COMP.  02 =   0.000000     FOR LAYER 10
                                       INITIAL CONC.: COMP.  02 =   0.000000     FOR LAYER 11
                                       INITIAL CONC.: COMP.  02 =   0.000000     FOR LAYER 12
                                       INITIAL CONC.: COMP.  02 =   0.000000     FOR LAYER 13
                                       INITIAL CONC.: COMP.  02 =   0.000000     FOR LAYER 14
                                       INITIAL CONC.: COMP.  02 =   0.000000     FOR LAYER 15
                                       INITIAL CONC.: COMP.  02 =   0.000000     FOR LAYER 16
                                       INITIAL CONC.: COMP.  02 =   0.000000     FOR LAYER 17
                                       INITIAL CONC.: COMP.  02 =   0.000000     FOR LAYER 18
                                       INITIAL CONC.: COMP.  02 =   0.000000     FOR LAYER 19
                                       INITIAL CONC.: COMP.  02 =   0.000000     FOR LAYER 20
                                       INITIAL CONC.: COMP.  02 =   0.000000     FOR LAYER 21
                                       INITIAL CONC.: COMP.  02 =   0.000000     FOR LAYER 22
                                       INITIAL CONC.: COMP.  02 =   0.000000     FOR LAYER 23

 VALUE INDICATING INACTIVE CONCENTRATION CELLS =   -1.000000    
 MINIMUM SATURATED THICKNESS [THKMIN] ALLOWED =  0.0500 OF TOTAL CELL THICKNESS


 OUTPUT CONTROL OPTIONS
 ----------------------

 DO NOT PRINT CELL CONCENTRATION
 DO NOT PRINT PARTICLE NUMBER IN EACH CELL
 DO NOT PRINT RETARDATION FACTOR
 DO NOT PRINT DISPERSION COEFFICIENT
 SAVE DISSOLVED PHASE CONCENTRATIONS IN UNFORMATTED FILES [MT3Dnnn.UCN]
  FOR EACH SPECIES ON UNITS 201 AND ABOVE

 SIMULATION RESULTS ARE SAVED EVERY  10 TRANSPORT STEP(S)

 NUMBER OF OBSERVATION POINTS =    7
 SAVE CONCENTRATIONS AT OBSERVATION POINTS IN FILES [MT3Dnnn.OBS]
  FOR EACH SPECIES ON UNITS 401 AND ABOVE, EVERY  1 TRANSPORT STEPS
 LOCATION OF OBSERVATION POINTS
 ..............................
 NUMBER  LAYER   ROW   COLUMN
   1       12      1     74
   2       17      1     74
   3        4      1     55
   4       22      1     93
   5       19      1     48
   6       13      1     61
   7        5      1     27

 SAVE ONE-LINE SUMMARY OF MASS BUDGETS IN FILES [MT3Dnnn.MAS]
  FOR EACH SPECIES ON UNITS 601 AND ABOVE, EVERY  1 TRANSPORT STEPS

 MAXIMUM LENGTH ALONG THE X (J) AXIS =   10000.00    
 MAXIMUM LENGTH ALONG THE Y (I) AXIS =   100.0000    
 MAXIMUM LENGTH ALONG THE Z (K) AXIS =   115.0000    


 ADVECTION SOLUTION OPTIONS
 --------------------------

 ADVECTION IS SOLVED WITH THE UPSTREAM FINITE DIFFERENCE SCHEME
 COURANT NUMBER ALLOWED IN SOLVING THE ADVECTION TERM = 0.750    


 DISPERSION INPUT PARAMETERS
 ---------------------------

                                       LONG. DISPERSIVITY (AL)  =   10.00000     FOR LAYER  1
                                       LONG. DISPERSIVITY (AL)  =   10.00000     FOR LAYER  2
                                       LONG. DISPERSIVITY (AL)  =   10.00000     FOR LAYER  3
                                       LONG. DISPERSIVITY (AL)  =   10.00000     FOR LAYER  4
                                       LONG. DISPERSIVITY (AL)  =   10.00000     FOR LAYER  5
                                       LONG. DISPERSIVITY (AL)  =   10.00000     FOR LAYER  6
                                       LONG. DISPERSIVITY (AL)  =   10.00000     FOR LAYER  7
                                       LONG. DISPERSIVITY (AL)  =   10.00000     FOR LAYER  8
                                       LONG. DISPERSIVITY (AL)  =   10.00000     FOR LAYER  9
                                       LONG. DISPERSIVITY (AL)  =   10.00000     FOR LAYER 10
                                       LONG. DISPERSIVITY (AL)  =   10.00000     FOR LAYER 11
                                       LONG. DISPERSIVITY (AL)  =   10.00000     FOR LAYER 12
                                       LONG. DISPERSIVITY (AL)  =   10.00000     FOR LAYER 13
                                       LONG. DISPERSIVITY (AL)  =   10.00000     FOR LAYER 14
                                       LONG. DISPERSIVITY (AL)  =   10.00000     FOR LAYER 15
                                       LONG. DISPERSIVITY (AL)  =   10.00000     FOR LAYER 16
                                       LONG. DISPERSIVITY (AL)  =   10.00000     FOR LAYER 17
                                       LONG. DISPERSIVITY (AL)  =   10.00000     FOR LAYER 18
                                       LONG. DISPERSIVITY (AL)  =   10.00000     FOR LAYER 19
                                       LONG. DISPERSIVITY (AL)  =   10.00000     FOR LAYER 20
                                       LONG. DISPERSIVITY (AL)  =   10.00000     FOR LAYER 21
                                       LONG. DISPERSIVITY (AL)  =   10.00000     FOR LAYER 22
                                       LONG. DISPERSIVITY (AL)  =   10.00000     FOR LAYER 23

                           H. TRANS./LONG. DISP.    READ ON UNIT 83 USING FORMAT: "(10E12.4)           "
                           -----------------------------------------------------------------------------

                           V. TRANS./LONG. DISP.    READ ON UNIT 83 USING FORMAT: "(10E12.4)           "
                           -----------------------------------------------------------------------------

                           DIFFUSION COEFFICIENT    READ ON UNIT 83 USING FORMAT: "(10E12.4)           "
                           -----------------------------------------------------------------------------


 SORPTION AND 1ST/0TH ORDER REACTION PARAMETERS
 ----------------------------------------------

                                       SOLUTE RXN RATE: COMP 01 =   0.000000     FOR LAYER  1
                                       SOLUTE RXN RATE: COMP 01 =   0.000000     FOR LAYER  2
                                       SOLUTE RXN RATE: COMP 01 =   0.000000     FOR LAYER  3
                                       SOLUTE RXN RATE: COMP 01 =   0.000000     FOR LAYER  4
                                       SOLUTE RXN RATE: COMP 01 =   0.000000     FOR LAYER  5
                                       SOLUTE RXN RATE: COMP 01 =   0.000000     FOR LAYER  6
                                       SOLUTE RXN RATE: COMP 01 =   0.000000     FOR LAYER  7
                                       SOLUTE RXN RATE: COMP 01 =   0.000000     FOR LAYER  8
                                       SOLUTE RXN RATE: COMP 01 =   0.000000     FOR LAYER  9
                                       SOLUTE RXN RATE: COMP 01 =   0.000000     FOR LAYER 10
                                       SOLUTE RXN RATE: COMP 01 =   0.000000     FOR LAYER 11
                                       SOLUTE RXN RATE: COMP 01 =   0.000000     FOR LAYER 12
                                       SOLUTE RXN RATE: COMP 01 =   0.000000     FOR LAYER 13
                                       SOLUTE RXN RATE: COMP 01 =   0.000000     FOR LAYER 14
                                       SOLUTE RXN RATE: COMP 01 =   0.000000     FOR LAYER 15
                                       SOLUTE RXN RATE: COMP 01 =   0.000000     FOR LAYER 16
                                       SOLUTE RXN RATE: COMP 01 =   0.000000     FOR LAYER 17
                                       SOLUTE RXN RATE: COMP 01 =   0.000000     FOR LAYER 18
                                       SOLUTE RXN RATE: COMP 01 =   0.000000     FOR LAYER 19
                                       SOLUTE RXN RATE: COMP 01 =   0.000000     FOR LAYER 20
                                       SOLUTE RXN RATE: COMP 01 =   0.000000     FOR LAYER 21
                                       SOLUTE RXN RATE: COMP 01 =   0.000000     FOR LAYER 22
                                       SOLUTE RXN RATE: COMP 01 =   0.000000     FOR LAYER 23
                                       SOLUTE RXN RATE: COMP 02 =  -1.000000     FOR LAYER  1
                                       SOLUTE RXN RATE: COMP 02 =  -1.000000     FOR LAYER  2
                                       SOLUTE RXN RATE: COMP 02 =  -1.000000     FOR LAYER  3
                                       SOLUTE RXN RATE: COMP 02 =  -1.000000     FOR LAYER  4
                                       SOLUTE RXN RATE: COMP 02 =  -1.000000     FOR LAYER  5
                                       SOLUTE RXN RATE: COMP 02 =  -1.000000     FOR LAYER  6
                                       SOLUTE RXN RATE: COMP 02 =  -1.000000     FOR LAYER  7
                                       SOLUTE RXN RATE: COMP 02 =  -1.000000     FOR LAYER  8
                                       SOLUTE RXN RATE: COMP 02 =  -1.000000     FOR LAYER  9
                                       SOLUTE RXN RATE: COMP 02 =  -1.000000     FOR LAYER 10
                                       SOLUTE RXN RATE: COMP 02 =  -1.000000     FOR LAYER 11
                                       SOLUTE RXN RATE: COMP 02 =  -1.000000     FOR LAYER 12
                                       SOLUTE RXN RATE: COMP 02 =  -1.000000     FOR LAYER 13
                                       SOLUTE RXN RATE: COMP 02 =  -1.000000     FOR LAYER 14
                                       SOLUTE RXN RATE: COMP 02 =  -1.000000     FOR LAYER 15
                                       SOLUTE RXN RATE: COMP 02 =  -1.000000     FOR LAYER 16
                                       SOLUTE RXN RATE: COMP 02 =  -1.000000     FOR LAYER 17
                                       SOLUTE RXN RATE: COMP 02 =  -1.000000     FOR LAYER 18
                                       SOLUTE RXN RATE: COMP 02 =  -1.000000     FOR LAYER 19
                                       SOLUTE RXN RATE: COMP 02 =  -1.000000     FOR LAYER 20
                                       SOLUTE RXN RATE: COMP 02 =  -1.000000     FOR LAYER 21
                                       SOLUTE RXN RATE: COMP 02 =  -1.000000     FOR LAYER 22
                                       SOLUTE RXN RATE: COMP 02 =  -1.000000     FOR LAYER 23
                                       SORBED RXN RATE: COMP 01 =   0.000000     FOR LAYER  1
                                       SORBED RXN RATE: COMP 01 =   0.000000     FOR LAYER  2
                                       SORBED RXN RATE: COMP 01 =   0.000000     FOR LAYER  3
                                       SORBED RXN RATE: COMP 01 =   0.000000     FOR LAYER  4
                                       SORBED RXN RATE: COMP 01 =   0.000000     FOR LAYER  5
                                       SORBED RXN RATE: COMP 01 =   0.000000     FOR LAYER  6
                                       SORBED RXN RATE: COMP 01 =   0.000000     FOR LAYER  7
                                       SORBED RXN RATE: COMP 01 =   0.000000     FOR LAYER  8
                                       SORBED RXN RATE: COMP 01 =   0.000000     FOR LAYER  9
                                       SORBED RXN RATE: COMP 01 =   0.000000     FOR LAYER 10
                                       SORBED RXN RATE: COMP 01 =   0.000000     FOR LAYER 11
                                       SORBED RXN RATE: COMP 01 =   0.000000     FOR LAYER 12
                                       SORBED RXN RATE: COMP 01 =   0.000000     FOR LAYER 13
                                       SORBED RXN RATE: COMP 01 =   0.000000     FOR LAYER 14
                                       SORBED RXN RATE: COMP 01 =   0.000000     FOR LAYER 15
                                       SORBED RXN RATE: COMP 01 =   0.000000     FOR LAYER 16
                                       SORBED RXN RATE: COMP 01 =   0.000000     FOR LAYER 17
                                       SORBED RXN RATE: COMP 01 =   0.000000     FOR LAYER 18
                                       SORBED RXN RATE: COMP 01 =   0.000000     FOR LAYER 19
                                       SORBED RXN RATE: COMP 01 =   0.000000     FOR LAYER 20
                                       SORBED RXN RATE: COMP 01 =   0.000000     FOR LAYER 21
                                       SORBED RXN RATE: COMP 01 =   0.000000     FOR LAYER 22
                                       SORBED RXN RATE: COMP 01 =   0.000000     FOR LAYER 23
                                       SORBED RXN RATE: COMP 02 =   0.000000     FOR LAYER  1
                                       SORBED RXN RATE: COMP 02 =   0.000000     FOR LAYER  2
                                       SORBED RXN RATE: COMP 02 =   0.000000     FOR LAYER  3
                                       SORBED RXN RATE: COMP 02 =   0.000000     FOR LAYER  4
                                       SORBED RXN RATE: COMP 02 =   0.000000     FOR LAYER  5
                                       SORBED RXN RATE: COMP 02 =   0.000000     FOR LAYER  6
                                       SORBED RXN RATE: COMP 02 =   0.000000     FOR LAYER  7
                                       SORBED RXN RATE: COMP 02 =   0.000000     FOR LAYER  8
                                       SORBED RXN RATE: COMP 02 =   0.000000     FOR LAYER  9
                                       SORBED RXN RATE: COMP 02 =   0.000000     FOR LAYER 10
                                       SORBED RXN RATE: COMP 02 =   0.000000     FOR LAYER 11
                                       SORBED RXN RATE: COMP 02 =   0.000000     FOR LAYER 12
                                       SORBED RXN RATE: COMP 02 =   0.000000     FOR LAYER 13
                                       SORBED RXN RATE: COMP 02 =   0.000000     FOR LAYER 14
                                       SORBED RXN RATE: COMP 02 =   0.000000     FOR LAYER 15
                                       SORBED RXN RATE: COMP 02 =   0.000000     FOR LAYER 16
                                       SORBED RXN RATE: COMP 02 =   0.000000     FOR LAYER 17
                                       SORBED RXN RATE: COMP 02 =   0.000000     FOR LAYER 18
                                       SORBED RXN RATE: COMP 02 =   0.000000     FOR LAYER 19
                                       SORBED RXN RATE: COMP 02 =   0.000000     FOR LAYER 20
                                       SORBED RXN RATE: COMP 02 =   0.000000     FOR LAYER 21
                                       SORBED RXN RATE: COMP 02 =   0.000000     FOR LAYER 22
                                       SORBED RXN RATE: COMP 02 =   0.000000     FOR LAYER 23



                                               SOLUTION BY THE GENERALIZED CONJUGATE GRADIENT METHOD
                                               -----------------------------------------------------
                                     MAXIMUM OUTER ITERATIONS ALLOWED FOR CLOSURE =        1
                                     MAXIMUM INNER ITERATIONS ALLOWED FOR CLOSURE =       50
                                                    PRECONDITIONING TYPE SELECTED =    2
                                                           ACCELERATION PARAMETER =     1.0000    
                                       CONCENTRATION CHANGE CRITERION FOR CLOSURE =    0.10000E-05
                                       GCG CONCENTRATION CHANGE PRINTOUT INTERVAL =        5


                                   ++++++++++++++++++++++++++++++++++++++++++++++++++++++++++++++
                                                       STRESS PERIOD NO.  001
                                   ++++++++++++++++++++++++++++++++++++++++++++++++++++++++++++++


 LENGTH OF CURRENT STRESS PERIOD =   45000.00    
 NUMBER OF TIME STEPS FOR CURRENT STRESS PERIOD =    1
 TIME STEP MULTIPLIER USED IN FLOW SOLUTION =   1.000000    
 USER-SPECIFIED TRANSPORT STEPSIZE =   50.00000    D   
 MAXIMUM NUMBER OF TRANSPORT STEPS ALLOWED  IN ONE FLOW TIME STEP =     99999
 MULTIPLIER FOR SUCCESSIVE TRANSPORT STEPS  [USED IN IMPLICIT SCHEMES] =     1.000
 MAXIMUM TRANSPORT STEP SIZE  [USED IN IMPLICIT SCHEMES] =   0.000000    D   
1
                            STRESS PERIOD NO.    1, LENGTH =   45000.00    
                            -----------------------------------------------

                              NUMBER OF TIME STEPS =     1

                               MULTIPLIER FOR DELT =     1.000

                            INITIAL TIME STEP SIZE =   45000.00    

 CONCENTRATION OF RECHARGE FLUXES WILL BE READ IN STRESS PERIOD  1
                                       RECH. CONC. COMP.  01    =   0.000000    
                                       RECH. CONC. COMP.  02    =   0.000000    

       NO    LAYER   ROW   COLUMN   CONCENTRATION       TYPE            COMPONENT
       1       1       1      71       35.00000         CONSTANT HEAD       1
       2      23       1     100       35.00000         CONSTANT HEAD       1
       3       2       1      72       35.00000         CONSTANT HEAD       1
       4       3       1      73       35.00000         CONSTANT HEAD       1
       5       3       1      74       35.00000         CONSTANT HEAD       1
       6       4       1      75       35.00000         CONSTANT HEAD       1
       7       5       1      76       35.00000         CONSTANT HEAD       1
       8       6       1      77       35.00000         CONSTANT HEAD       1
       9       6       1      78       35.00000         CONSTANT HEAD       1
      10       7       1      79       35.00000         CONSTANT HEAD       1
      11       8       1      80       35.00000         CONSTANT HEAD       1
      12       9       1      81       35.00000         CONSTANT HEAD       1
      13      10       1      82       35.00000         CONSTANT HEAD       1
      14      11       1      83       35.00000         CONSTANT HEAD       1
      15      11       1      84       35.00000         CONSTANT HEAD       1
      16      12       1      85       35.00000         CONSTANT HEAD       1
      17      13       1      86       35.00000         CONSTANT HEAD       1
      18      14       1      87       35.00000         CONSTANT HEAD       1
      19      15       1      88       35.00000         CONSTANT HEAD       1
      20      15       1      89       35.00000         CONSTANT HEAD       1
      21      16       1      90       35.00000         CONSTANT HEAD       1
      22      17       1      91       35.00000         CONSTANT HEAD       1
      23      18       1      92       35.00000         CONSTANT HEAD       1
      24      19       1      93       35.00000         CONSTANT HEAD       1
      25      19       1      94       35.00000         CONSTANT HEAD       1
      26      20       1      95       35.00000         CONSTANT HEAD       1
      27      21       1      96       35.00000         CONSTANT HEAD       1
      28      22       1      98       35.00000         CONSTANT HEAD       1
      29      21       1      97       35.00000         CONSTANT HEAD       1
      30      22       1      99       35.00000         CONSTANT HEAD       1

      0 WELLS



                           RECHARGE
 READING ON UNIT   18 WITH FORMAT: (10e12.4)           


                                          ================================================
                                                         FROM TIME =   0.0000     TO    45000.    

 
 SOLVING FOR HEAD 


     4 CALLS TO PCG ROUTINE FOR TIME STEP   1 IN STRESS PERIOD    1
    16 TOTAL ITERATIONS

 MAXIMUM HEAD CHANGE FOR EACH ITERATION (1 INDICATES THE FIRST INNER ITERATION):

    HEAD CHANGE    HEAD CHANGE    HEAD CHANGE    HEAD CHANGE    HEAD CHANGE 
   LAYER,ROW,COL  LAYER,ROW,COL  LAYER,ROW,COL  LAYER,ROW,COL  LAYER,ROW,COL
 ---------------------------------------------------------------------------
  1 -0.1119      0  0.4611      0 -0.4717      0 -0.5546E-01  0  0.9505E-01
   ( 20,  1, 87)  (  7,  1, 12)  (  8,  1, 12)  (  8,  1, 46)  (  9,  1, 46)
  0 -0.5238E-01  0  0.1737E-01  0  0.1645E-01  0 -0.1165E-01  0 -0.4703E-02
   ( 10,  1, 50)  ( 11,  1, 65)  ( 11,  1, 70)  ( 11,  1, 69)  ( 11,  1, 70)
  1  0.3578E-02  0  0.1074E-02  0  0.9285E-03  1 -0.1017E-02  0 -0.4155E-03
   ( 11,  1, 69)  ( 11,  1, 51)  ( 11,  1, 51)  ( 11,  1, 70)  ( 11,  1, 70)
  1  0.3779E-03
   ( 11,  1, 52)

 MAXIMUM RESIDUAL FOR EACH ITERATION (1 INDICATES THE FIRST INNER ITERATION):

    RESIDUAL       RESIDUAL       RESIDUAL       RESIDUAL       RESIDUAL    
   LAYER,ROW,COL  LAYER,ROW,COL  LAYER,ROW,COL  LAYER,ROW,COL  LAYER,ROW,COL
 ---------------------------------------------------------------------------
  1  0.2861E+08  0 -0.2511E+07  0 -0.1394E+07  0 -0.1044E+07  0 -0.6891E+06
   ( 19,  1, 89)  ( 20,  1, 89)  ( 20,  1, 89)  ( 20,  1, 89)  ( 20,  1, 89)
  0 -0.1300E+06  0 -0.1040E+06  0 -0.4631E+05  0  -9859.      0  -5775.    
   ( 20,  1, 89)  ( 20,  1, 89)  ( 20,  1, 89)  ( 20,  1, 89)  ( 19,  1, 90)
  1  -4859.      0  -4027.      0  -3189.      1  -2818.      0  -2651.    
   ( 19,  1, 90)  ( 19,  1, 90)  ( 19,  1, 90)  ( 19,  1, 90)  ( 19,  1, 90)
  1  -2509.    
   ( 19,  1, 90)


 FLOW MODEL IS TRANSIENT
 FLOW MODEL CONTAINS CONSTANT-HEAD CELLS


 MAXIMUM STEPSIZE DURING WHICH ANY PARTICLE CANNOT MOVE MORE THAN ONE CELL
 =  12.37    (WHEN MIN. R.F.=1)  AT K=  17, I=   1, J=  90

 MAXIMUM STEPSIZE WHICH MEETS STABILITY CRITERION OF THE ADVECTION TERM
 (FOR PURE FINITE-DIFFERENCE OPTION, MIXELM=0) 
 =  7.824    (WHEN MIN. R.F.=1)  AT K=  16, I=   1, J=  90


 TOTAL NUMBER OF POINT SOURCES/SINKS PRESENT IN THE FLOW MODEL =    30

 MAXIMUM STEPSIZE WHICH MEETS STABILITY CRITERION OF THE SINK & SOURCE TERM
 =  11.84    (WHEN MIN. R.F.=1)  AT K=  17, I=   1, J=  91

 MAXIMUM STEPSIZE WHICH MEETS STABILITY CRITERION OF THE DISPERSION TERM
 =  3.839    (WHEN MIN. R.F.=1)  AT K=  17, I=   1, J=  90


     1 CALLS TO GCG PACKAGE FOR TRANSPORT TIME STEP   1 IN FLOW TIME STEP   1 STRESS PERIOD   1
     8 TOTAL ITERATIONS


     1 CALLS TO GCG PACKAGE FOR TRANSPORT TIME STEP   1 IN FLOW TIME STEP   1 STRESS PERIOD   1
    14 TOTAL ITERATIONS

 HEAD/DRAWDOWN PRINTOUT FLAG = 1     TOTAL BUDGET PRINTOUT FLAG = 1
 CELL-BY-CELL FLOW TERM FLAG = 1

 OUTPUT FLAGS FOR ALL LAYERS ARE THE SAME:
   HEAD    DRAWDOWN  HEAD  DRAWDOWN
 PRINTOUT  PRINTOUT  SAVE    SAVE
 ----------------------------------
     0         0       1       0
 
 SOLVING FOR HEAD 


     2 CALLS TO PCG ROUTINE FOR TIME STEP   1 IN STRESS PERIOD    1
     8 TOTAL ITERATIONS

 MAXIMUM HEAD CHANGE FOR EACH ITERATION (1 INDICATES THE FIRST INNER ITERATION):

    HEAD CHANGE    HEAD CHANGE    HEAD CHANGE    HEAD CHANGE    HEAD CHANGE 
   LAYER,ROW,COL  LAYER,ROW,COL  LAYER,ROW,COL  LAYER,ROW,COL  LAYER,ROW,COL
 ---------------------------------------------------------------------------
  1 -0.1195E-01  0  0.1958E-01  0 -0.7959E-02  0  0.1133E-01  0 -0.9499E-02
   (  7,  1, 12)  (  8,  1, 12)  (  8,  1, 12)  ( 11,  1, 51)  ( 11,  1, 51)
  0 -0.5921E-02  0 -0.9474E-03  1  0.9468E-03
   ( 11,  1, 69)  ( 11,  1, 38)  ( 11,  1, 70)

 MAXIMUM RESIDUAL FOR EACH ITERATION (1 INDICATES THE FIRST INNER ITERATION):

    RESIDUAL       RESIDUAL       RESIDUAL       RESIDUAL       RESIDUAL    
   LAYER,ROW,COL  LAYER,ROW,COL  LAYER,ROW,COL  LAYER,ROW,COL  LAYER,ROW,COL
 ---------------------------------------------------------------------------
  1 -0.1534E+06  0 -0.1464E+06  0  0.1097E+06  0  0.4322E+05  0  -7876.    
   ( 21,  1, 89)  ( 21,  1, 89)  ( 19,  1, 89)  ( 19,  1, 89)  ( 18,  1, 89)
  0  -3494.      0  -2918.      1  -2379.    
   ( 18,  1, 89)  ( 22,  1, 87)  ( 22,  1, 87)


 FLOW MODEL IS TRANSIENT
 FLOW MODEL CONTAINS CONSTANT-HEAD CELLS


 MAXIMUM STEPSIZE DURING WHICH ANY PARTICLE CANNOT MOVE MORE THAN ONE CELL
 =  13.20    (WHEN MIN. R.F.=1)  AT K=  17, I=   1, J=  90

 MAXIMUM STEPSIZE WHICH MEETS STABILITY CRITERION OF THE ADVECTION TERM
 (FOR PURE FINITE-DIFFERENCE OPTION, MIXELM=0) 
 =  7.965    (WHEN MIN. R.F.=1)  AT K=  16, I=   1, J=  90


 TOTAL NUMBER OF POINT SOURCES/SINKS PRESENT IN THE FLOW MODEL =    30

 MAXIMUM STEPSIZE WHICH MEETS STABILITY CRITERION OF THE SINK & SOURCE TERM
 =  12.20    (WHEN MIN. R.F.=1)  AT K=  17, I=   1, J=  91

 MAXIMUM STEPSIZE WHICH MEETS STABILITY CRITERION OF THE DISPERSION TERM
 =  4.366    (WHEN MIN. R.F.=1)  AT K=  17, I=   1, J=  90
     1 CALLS TO GCG PACKAGE FOR TRANSPORT TIME STEP   2 IN FLOW TIME STEP   1 STRESS PERIOD   1
    11 TOTAL ITERATIONS
     1 CALLS TO GCG PACKAGE FOR TRANSPORT TIME STEP   2 IN FLOW TIME STEP   1 STRESS PERIOD   1
    11 TOTAL ITERATIONS
 
 SOLVING FOR HEAD 


     2 CALLS TO PCG ROUTINE FOR TIME STEP   1 IN STRESS PERIOD    1
     9 TOTAL ITERATIONS

 MAXIMUM HEAD CHANGE FOR EACH ITERATION (1 INDICATES THE FIRST INNER ITERATION):

    HEAD CHANGE    HEAD CHANGE    HEAD CHANGE    HEAD CHANGE    HEAD CHANGE 
   LAYER,ROW,COL  LAYER,ROW,COL  LAYER,ROW,COL  LAYER,ROW,COL  LAYER,ROW,COL
 ---------------------------------------------------------------------------
  1  0.1444E-01  0  0.8612E-02  0 -0.9359E-02  0  0.1096E-01  0  0.7956E-02
   ( 15,  1, 86)  (  7,  1, 12)  (  8,  1, 12)  ( 11,  1, 54)  ( 11,  1, 38)
  0  0.2818E-02  0 -0.2253E-02  0  0.8645E-03  1 -0.6402E-03
   (  7,  1, 32)  ( 11,  1, 70)  ( 11,  1, 66)  ( 11,  1, 66)

 MAXIMUM RESIDUAL FOR EACH ITERATION (1 INDICATES THE FIRST INNER ITERATION):

    RESIDUAL       RESIDUAL       RESIDUAL       RESIDUAL       RESIDUAL    
   LAYER,ROW,COL  LAYER,ROW,COL  LAYER,ROW,COL  LAYER,ROW,COL  LAYER,ROW,COL
 ---------------------------------------------------------------------------
  1  0.1493E+06  0 -0.1089E+06  0 -0.1090E+06  0 -0.8442E+05  0  -6066.    
   ( 21,  1, 89)  ( 19,  1, 89)  ( 19,  1, 89)  ( 19,  1, 89)  ( 17,  1, 87)
  0   3221.      0   2826.      0   2195.      1   1898.    
   ( 17,  1, 88)  ( 22,  1, 87)  ( 22,  1, 87)  ( 22,  1, 87)


 FLOW MODEL IS TRANSIENT
 FLOW MODEL CONTAINS CONSTANT-HEAD CELLS


 MAXIMUM STEPSIZE DURING WHICH ANY PARTICLE CANNOT MOVE MORE THAN ONE CELL
 =  12.83    (WHEN MIN. R.F.=1)  AT K=  17, I=   1, J=  90

 MAXIMUM STEPSIZE WHICH MEETS STABILITY CRITERION OF THE ADVECTION TERM
 (FOR PURE FINITE-DIFFERENCE OPTION, MIXELM=0) 
 =  8.008    (WHEN MIN. R.F.=1)  AT K=  16, I=   1, J=  90


 TOTAL NUMBER OF POINT SOURCES/SINKS PRESENT IN THE FLOW MODEL =    30

 MAXIMUM STEPSIZE WHICH MEETS STABILITY CRITERION OF THE SINK & SOURCE TERM
 =  12.31    (WHEN MIN. R.F.=1)  AT K=  17, I=   1, J=  91

 MAXIMUM STEPSIZE WHICH MEETS STABILITY CRITERION OF THE DISPERSION TERM
 =  4.024    (WHEN MIN. R.F.=1)  AT K=  17, I=   1, J=  90
     1 CALLS TO GCG PACKAGE FOR TRANSPORT TIME STEP   3 IN FLOW TIME STEP   1 STRESS PERIOD   1
     8 TOTAL ITERATIONS
     1 CALLS TO GCG PACKAGE FOR TRANSPORT TIME STEP   3 IN FLOW TIME STEP   1 STRESS PERIOD   1
    11 TOTAL ITERATIONS
 
 SOLVING FOR HEAD 


     2 CALLS TO PCG ROUTINE FOR TIME STEP   1 IN STRESS PERIOD    1
     8 TOTAL ITERATIONS

 MAXIMUM HEAD CHANGE FOR EACH ITERATION (1 INDICATES THE FIRST INNER ITERATION):

    HEAD CHANGE    HEAD CHANGE    HEAD CHANGE    HEAD CHANGE    HEAD CHANGE 
   LAYER,ROW,COL  LAYER,ROW,COL  LAYER,ROW,COL  LAYER,ROW,COL  LAYER,ROW,COL
 ---------------------------------------------------------------------------
  1 -0.1402E-01  0  0.4299E-02  0  0.2614E-02  0  0.1190E-01  0 -0.1058E-01
   ( 15,  1, 86)  ( 17,  1, 89)  (  8,  1, 12)  ( 11,  1, 66)  ( 11,  1, 66)
  0 -0.1864E-02  0 -0.8234E-03  1  0.7221E-03
   ( 11,  1, 49)  (  7,  1, 32)  ( 11,  1, 56)

 MAXIMUM RESIDUAL FOR EACH ITERATION (1 INDICATES THE FIRST INNER ITERATION):

    RESIDUAL       RESIDUAL       RESIDUAL       RESIDUAL       RESIDUAL    
   LAYER,ROW,COL  LAYER,ROW,COL  LAYER,ROW,COL  LAYER,ROW,COL  LAYER,ROW,COL
 ---------------------------------------------------------------------------
  1 -0.1419E+06  0  0.1002E+06  0  0.9720E+05  0  0.5042E+05  0  -6300.    
   ( 21,  1, 89)  ( 19,  1, 89)  ( 19,  1, 89)  ( 19,  1, 89)  ( 17,  1, 88)
  0  -2927.      0  -2725.      1  -1966.    
   ( 22,  1, 87)  ( 22,  1, 87)  ( 22,  1, 87)


 FLOW MODEL IS TRANSIENT
 FLOW MODEL CONTAINS CONSTANT-HEAD CELLS


 MAXIMUM STEPSIZE DURING WHICH ANY PARTICLE CANNOT MOVE MORE THAN ONE CELL
 =  13.15    (WHEN MIN. R.F.=1)  AT K=  17, I=   1, J=  90

 MAXIMUM STEPSIZE WHICH MEETS STABILITY CRITERION OF THE ADVECTION TERM
 (FOR PURE FINITE-DIFFERENCE OPTION, MIXELM=0) 
 =  7.959    (WHEN MIN. R.F.=1)  AT K=  16, I=   1, J=  90


 TOTAL NUMBER OF POINT SOURCES/SINKS PRESENT IN THE FLOW MODEL =    30

 MAXIMUM STEPSIZE WHICH MEETS STABILITY CRITERION OF THE SINK & SOURCE TERM
 =  12.17    (WHEN MIN. R.F.=1)  AT K=  17, I=   1, J=  91

 MAXIMUM STEPSIZE WHICH MEETS STABILITY CRITERION OF THE DISPERSION TERM
 =  4.351    (WHEN MIN. R.F.=1)  AT K=  17, I=   1, J=  90
     1 CALLS TO GCG PACKAGE FOR TRANSPORT TIME STEP   4 IN FLOW TIME STEP   1 STRESS PERIOD   1
     8 TOTAL ITERATIONS
     1 CALLS TO GCG PACKAGE FOR TRANSPORT TIME STEP   4 IN FLOW TIME STEP   1 STRESS PERIOD   1
    11 TOTAL ITERATIONS
 
 SOLVING FOR HEAD 


     2 CALLS TO PCG ROUTINE FOR TIME STEP   1 IN STRESS PERIOD    1
     9 TOTAL ITERATIONS

 MAXIMUM HEAD CHANGE FOR EACH ITERATION (1 INDICATES THE FIRST INNER ITERATION):

    HEAD CHANGE    HEAD CHANGE    HEAD CHANGE    HEAD CHANGE    HEAD CHANGE 
   LAYER,ROW,COL  LAYER,ROW,COL  LAYER,ROW,COL  LAYER,ROW,COL  LAYER,ROW,COL
 ---------------------------------------------------------------------------
  1  0.1414E-01  0  0.9439E-02  0 -0.5486E-02  0 -0.9672E-02  0  0.6783E-02
   ( 15,  1, 86)  (  5,  1, 40)  (  7,  1, 12)  (  9,  1, 44)  (  7,  1, 45)
  0 -0.3996E-02  0 -0.1550E-02  0 -0.9916E-03  1  0.7044E-03
   ( 11,  1, 70)  ( 11,  1, 54)  ( 11,  1, 66)  ( 11,  1, 66)

 MAXIMUM RESIDUAL FOR EACH ITERATION (1 INDICATES THE FIRST INNER ITERATION):

    RESIDUAL       RESIDUAL       RESIDUAL       RESIDUAL       RESIDUAL    
   LAYER,ROW,COL  LAYER,ROW,COL  LAYER,ROW,COL  LAYER,ROW,COL  LAYER,ROW,COL
 ---------------------------------------------------------------------------
  1  0.1411E+06  0 -0.1023E+06  0 -0.1017E+06  0 -0.8425E+05  0   6565.    
   ( 21,  1, 89)  ( 19,  1, 89)  ( 19,  1, 89)  ( 19,  1, 89)  ( 17,  1, 88)
  0   3373.      0   2602.      0   1242.      1   1094.    
   ( 17,  1, 88)  ( 22,  1, 87)  ( 22,  1, 87)  ( 22,  1, 87)


 FLOW MODEL IS TRANSIENT
 FLOW MODEL CONTAINS CONSTANT-HEAD CELLS


 MAXIMUM STEPSIZE DURING WHICH ANY PARTICLE CANNOT MOVE MORE THAN ONE CELL
 =  12.80    (WHEN MIN. R.F.=1)  AT K=  17, I=   1, J=  90

 MAXIMUM STEPSIZE WHICH MEETS STABILITY CRITERION OF THE ADVECTION TERM
 (FOR PURE FINITE-DIFFERENCE OPTION, MIXELM=0) 
 =  8.009    (WHEN MIN. R.F.=1)  AT K=  16, I=   1, J=  90


 TOTAL NUMBER OF POINT SOURCES/SINKS PRESENT IN THE FLOW MODEL =    30

 MAXIMUM STEPSIZE WHICH MEETS STABILITY CRITERION OF THE SINK & SOURCE TERM
 =  12.20    (WHEN MIN. R.F.=1)  AT K=  17, I=   1, J=  91

 MAXIMUM STEPSIZE WHICH MEETS STABILITY CRITERION OF THE DISPERSION TERM
 =  4.006    (WHEN MIN. R.F.=1)  AT K=  17, I=   1, J=  90
     1 CALLS TO GCG PACKAGE FOR TRANSPORT TIME STEP   5 IN FLOW TIME STEP   1 STRESS PERIOD   1
     8 TOTAL ITERATIONS
  MAXIMUM CONCENTRATION CHANGES FOR EACH ITERATION:
  MAX. CHANGE LAYER,ROW,COL MAX. CHANGE LAYER,ROW,COL MAX. CHANGE LAYER,ROW,COL MAX. CHANGE LAYER,ROW,COL MAX. CHANGE LAYER,ROW,COL
 ------------------------------------------------------------------------------------------------------------------------------------
   0.5259E-01 ( 20,  1, 87)  0.4424E-02 ( 19,  1, 89)  0.2222E-02 ( 17,  1, 86)  0.5026E-03 ( 20,  1, 89)  0.9883E-04 ( 16,  1, 89)
   0.2228E-04 ( 20,  1, 89)  0.2533E-04 ( 16,  1, 90)  0.7010E-06 ( 17,  1, 90)
     1 CALLS TO GCG PACKAGE FOR TRANSPORT TIME STEP   5 IN FLOW TIME STEP   1 STRESS PERIOD   1
    11 TOTAL ITERATIONS
  MAXIMUM CONCENTRATION CHANGES FOR EACH ITERATION:
  MAX. CHANGE LAYER,ROW,COL MAX. CHANGE LAYER,ROW,COL MAX. CHANGE LAYER,ROW,COL MAX. CHANGE LAYER,ROW,COL MAX. CHANGE LAYER,ROW,COL
 ------------------------------------------------------------------------------------------------------------------------------------
   0.2675     ( 12,  1, 76)  0.8634E-01 ( 17,  1, 85)  0.4716E-01 ( 17,  1, 89)  0.1180E-01 ( 16,  1, 89)  0.4161E-02 ( 17,  1, 90)
   0.1471E-02 ( 17,  1, 90)  0.2766E-03 ( 17,  1, 90)  0.1416E-04 ( 16,  1, 89)  0.3273E-04 ( 16,  1, 89)  0.1451E-05 ( 17,  1, 83)
   0.1792E-06 ( 17,  1, 89)
 
 SOLVING FOR HEAD 


     2 CALLS TO PCG ROUTINE FOR TIME STEP   1 IN STRESS PERIOD    1
     8 TOTAL ITERATIONS

 MAXIMUM HEAD CHANGE FOR EACH ITERATION (1 INDICATES THE FIRST INNER ITERATION):

    HEAD CHANGE    HEAD CHANGE    HEAD CHANGE    HEAD CHANGE    HEAD CHANGE 
   LAYER,ROW,COL  LAYER,ROW,COL  LAYER,ROW,COL  LAYER,ROW,COL  LAYER,ROW,COL
 ---------------------------------------------------------------------------
  1 -0.1376E-01  0  0.4166E-02  0  0.2504E-02  0  0.9853E-02  0 -0.1163E-01
   ( 15,  1, 86)  ( 17,  1, 89)  (  8,  1, 12)  ( 11,  1, 50)  ( 11,  1, 50)
  0  0.2373E-02  0  0.9824E-03  1  0.6441E-03
   ( 11,  1, 51)  ( 11,  1, 70)  ( 11,  1, 40)

 MAXIMUM RESIDUAL FOR EACH ITERATION (1 INDICATES THE FIRST INNER ITERATION):

    RESIDUAL       RESIDUAL       RESIDUAL       RESIDUAL       RESIDUAL    
   LAYER,ROW,COL  LAYER,ROW,COL  LAYER,ROW,COL  LAYER,ROW,COL  LAYER,ROW,COL
 ---------------------------------------------------------------------------
  1 -0.1369E+06  0  0.9612E+05  0  0.9479E+05  0  0.2029E+05  0  -5056.    
   ( 21,  1, 89)  ( 19,  1, 89)  ( 19,  1, 89)  ( 19,  1, 89)  ( 17,  1, 88)
  0  -2851.      0  -2535.      1  -2077.    
   ( 22,  1, 87)  ( 22,  1, 87)  ( 22,  1, 87)


 FLOW MODEL IS TRANSIENT
 FLOW MODEL CONTAINS CONSTANT-HEAD CELLS


 MAXIMUM STEPSIZE DURING WHICH ANY PARTICLE CANNOT MOVE MORE THAN ONE CELL
 =  13.20    (WHEN MIN. R.F.=1)  AT K=  17, I=   1, J=  90

 MAXIMUM STEPSIZE WHICH MEETS STABILITY CRITERION OF THE ADVECTION TERM
 (FOR PURE FINITE-DIFFERENCE OPTION, MIXELM=0) 
 =  7.982    (WHEN MIN. R.F.=1)  AT K=  16, I=   1, J=  90


 TOTAL NUMBER OF POINT SOURCES/SINKS PRESENT IN THE FLOW MODEL =    30

 MAXIMUM STEPSIZE WHICH MEETS STABILITY CRITERION OF THE SINK & SOURCE TERM
 =  12.16    (WHEN MIN. R.F.=1)  AT K=  17, I=   1, J=  91

 MAXIMUM STEPSIZE WHICH MEETS STABILITY CRITERION OF THE DISPERSION TERM
 =  4.379    (WHEN MIN. R.F.=1)  AT K=  17, I=   1, J=  90
     1 CALLS TO GCG PACKAGE FOR TRANSPORT TIME STEP   6 IN FLOW TIME STEP   1 STRESS PERIOD   1
    10 TOTAL ITERATIONS
     1 CALLS TO GCG PACKAGE FOR TRANSPORT TIME STEP   6 IN FLOW TIME STEP   1 STRESS PERIOD   1
    11 TOTAL ITERATIONS
 
 SOLVING FOR HEAD 


     2 CALLS TO PCG ROUTINE FOR TIME STEP   1 IN STRESS PERIOD    1
     9 TOTAL ITERATIONS

 MAXIMUM HEAD CHANGE FOR EACH ITERATION (1 INDICATES THE FIRST INNER ITERATION):

    HEAD CHANGE    HEAD CHANGE    HEAD CHANGE    HEAD CHANGE    HEAD CHANGE 
   LAYER,ROW,COL  LAYER,ROW,COL  LAYER,ROW,COL  LAYER,ROW,COL  LAYER,ROW,COL
 ---------------------------------------------------------------------------
  1  0.1408E-01  0  0.6173E-02  0 -0.6025E-02  0 -0.9716E-02  0 -0.6996E-02
   ( 15,  1, 86)  ( 11,  1, 40)  (  8,  1, 12)  ( 11,  1, 39)  (  8,  1, 51)
  0 -0.3420E-02  0 -0.1045E-02  0 -0.5839E-03  1 -0.5912E-03
   ( 11,  1, 49)  ( 11,  1, 56)  ( 11,  1, 65)  ( 11,  1, 60)

 MAXIMUM RESIDUAL FOR EACH ITERATION (1 INDICATES THE FIRST INNER ITERATION):

    RESIDUAL       RESIDUAL       RESIDUAL       RESIDUAL       RESIDUAL    
   LAYER,ROW,COL  LAYER,ROW,COL  LAYER,ROW,COL  LAYER,ROW,COL  LAYER,ROW,COL
 ---------------------------------------------------------------------------
  1  0.1388E+06  0 -0.9840E+05  0 -0.9799E+05  0 -0.7616E+05  0  -6452.    
   ( 21,  1, 89)  ( 19,  1, 89)  ( 19,  1, 89)  ( 19,  1, 89)  ( 17,  1, 87)
  0   3149.      0   2578.      0   1127.      1   1002.    
   ( 17,  1, 88)  ( 22,  1, 87)  ( 22,  1, 87)  ( 22,  1, 87)


 FLOW MODEL IS TRANSIENT
 FLOW MODEL CONTAINS CONSTANT-HEAD CELLS


 MAXIMUM STEPSIZE DURING WHICH ANY PARTICLE CANNOT MOVE MORE THAN ONE CELL
 =  12.86    (WHEN MIN. R.F.=1)  AT K=  17, I=   1, J=  90

 MAXIMUM STEPSIZE WHICH MEETS STABILITY CRITERION OF THE ADVECTION TERM
 (FOR PURE FINITE-DIFFERENCE OPTION, MIXELM=0) 
 =  8.033    (WHEN MIN. R.F.=1)  AT K=  16, I=   1, J=  90


 TOTAL NUMBER OF POINT SOURCES/SINKS PRESENT IN THE FLOW MODEL =    30

 MAXIMUM STEPSIZE WHICH MEETS STABILITY CRITERION OF THE SINK & SOURCE TERM
 =  12.25    (WHEN MIN. R.F.=1)  AT K=  17, I=   1, J=  91

 MAXIMUM STEPSIZE WHICH MEETS STABILITY CRITERION OF THE DISPERSION TERM
 =  4.031    (WHEN MIN. R.F.=1)  AT K=  17, I=   1, J=  90
     1 CALLS TO GCG PACKAGE FOR TRANSPORT TIME STEP   7 IN FLOW TIME STEP   1 STRESS PERIOD   1
     8 TOTAL ITERATIONS
     1 CALLS TO GCG PACKAGE FOR TRANSPORT TIME STEP   7 IN FLOW TIME STEP   1 STRESS PERIOD   1
    11 TOTAL ITERATIONS
 
 SOLVING FOR HEAD 


     2 CALLS TO PCG ROUTINE FOR TIME STEP   1 IN STRESS PERIOD    1
     8 TOTAL ITERATIONS

 MAXIMUM HEAD CHANGE FOR EACH ITERATION (1 INDICATES THE FIRST INNER ITERATION):

    HEAD CHANGE    HEAD CHANGE    HEAD CHANGE    HEAD CHANGE    HEAD CHANGE 
   LAYER,ROW,COL  LAYER,ROW,COL  LAYER,ROW,COL  LAYER,ROW,COL  LAYER,ROW,COL
 ---------------------------------------------------------------------------
  1 -0.1371E-01  0  0.4215E-02  0  0.3076E-02  0  0.7783E-02  0 -0.8568E-02
   ( 15,  1, 86)  ( 17,  1, 89)  (  8,  1, 12)  ( 11,  1, 58)  ( 11,  1, 58)
  0  0.1721E-02  0  0.7610E-03  1  0.5550E-03
   ( 11,  1, 54)  ( 11,  1, 49)  ( 11,  1, 67)

 MAXIMUM RESIDUAL FOR EACH ITERATION (1 INDICATES THE FIRST INNER ITERATION):

    RESIDUAL       RESIDUAL       RESIDUAL       RESIDUAL       RESIDUAL    
   LAYER,ROW,COL  LAYER,ROW,COL  LAYER,ROW,COL  LAYER,ROW,COL  LAYER,ROW,COL
 ---------------------------------------------------------------------------
  1 -0.1396E+06  0  0.9933E+05  0  0.9828E+05  0  0.2362E+05  0  -5388.    
   ( 21,  1, 89)  ( 19,  1, 89)  ( 19,  1, 89)  ( 19,  1, 89)  ( 17,  1, 88)
  0  -2821.      0  -2371.      1  -2052.    
   ( 22,  1, 87)  ( 22,  1, 87)  ( 22,  1, 87)


 FLOW MODEL IS TRANSIENT
 FLOW MODEL CONTAINS CONSTANT-HEAD CELLS


 MAXIMUM STEPSIZE DURING WHICH ANY PARTICLE CANNOT MOVE MORE THAN ONE CELL
 =  13.22    (WHEN MIN. R.F.=1)  AT K=  17, I=   1, J=  90

 MAXIMUM STEPSIZE WHICH MEETS STABILITY CRITERION OF THE ADVECTION TERM
 (FOR PURE FINITE-DIFFERENCE OPTION, MIXELM=0) 
 =  7.991    (WHEN MIN. R.F.=1)  AT K=  16, I=   1, J=  90


 TOTAL NUMBER OF POINT SOURCES/SINKS PRESENT IN THE FLOW MODEL =    30

 MAXIMUM STEPSIZE WHICH MEETS STABILITY CRITERION OF THE SINK & SOURCE TERM
 =  12.17    (WHEN MIN. R.F.=1)  AT K=  17, I=   1, J=  91

 MAXIMUM STEPSIZE WHICH MEETS STABILITY CRITERION OF THE DISPERSION TERM
 =  4.387    (WHEN MIN. R.F.=1)  AT K=  17, I=   1, J=  90
     1 CALLS TO GCG PACKAGE FOR TRANSPORT TIME STEP   8 IN FLOW TIME STEP   1 STRESS PERIOD   1
    10 TOTAL ITERATIONS
     1 CALLS TO GCG PACKAGE FOR TRANSPORT TIME STEP   8 IN FLOW TIME STEP   1 STRESS PERIOD   1
    10 TOTAL ITERATIONS
 
 SOLVING FOR HEAD 


     2 CALLS TO PCG ROUTINE FOR TIME STEP   1 IN STRESS PERIOD    1
    10 TOTAL ITERATIONS

 MAXIMUM HEAD CHANGE FOR EACH ITERATION (1 INDICATES THE FIRST INNER ITERATION):

    HEAD CHANGE    HEAD CHANGE    HEAD CHANGE    HEAD CHANGE    HEAD CHANGE 
   LAYER,ROW,COL  LAYER,ROW,COL  LAYER,ROW,COL  LAYER,ROW,COL  LAYER,ROW,COL
 ---------------------------------------------------------------------------
  1  0.1396E-01  0  0.5829E-02  0 -0.5422E-02  0 -0.9717E-02  0  0.7754E-02
   ( 15,  1, 86)  (  7,  1, 49)  (  8,  1, 12)  (  7,  1, 50)  (  9,  1, 51)
  0 -0.4417E-02  0  0.1493E-02  0  0.1024E-02  0 -0.7378E-03  1  0.1623E-03
   ( 11,  1, 60)  ( 11,  1, 60)  ( 11,  1, 69)  ( 11,  1, 69)  ( 11,  1, 71)

 MAXIMUM RESIDUAL FOR EACH ITERATION (1 INDICATES THE FIRST INNER ITERATION):

    RESIDUAL       RESIDUAL       RESIDUAL       RESIDUAL       RESIDUAL    
   LAYER,ROW,COL  LAYER,ROW,COL  LAYER,ROW,COL  LAYER,ROW,COL  LAYER,ROW,COL
 ---------------------------------------------------------------------------
  1  0.1393E+06  0 -0.9874E+05  0 -0.9821E+05  0 -0.7118E+05  0  -6170.    
   ( 21,  1, 89)  ( 19,  1, 89)  ( 19,  1, 89)  ( 19,  1, 89)  ( 17,  1, 87)
  0   2855.      0   2581.      0   975.7      0   370.8      1  -338.5    
   ( 17,  1, 88)  ( 22,  1, 87)  ( 22,  1, 87)  ( 22,  1, 87)  ( 18,  1, 90)


 FLOW MODEL IS TRANSIENT
 FLOW MODEL CONTAINS CONSTANT-HEAD CELLS


 MAXIMUM STEPSIZE DURING WHICH ANY PARTICLE CANNOT MOVE MORE THAN ONE CELL
 =  12.86    (WHEN MIN. R.F.=1)  AT K=  17, I=   1, J=  90

 MAXIMUM STEPSIZE WHICH MEETS STABILITY CRITERION OF THE ADVECTION TERM
 (FOR PURE FINITE-DIFFERENCE OPTION, MIXELM=0) 
 =  8.035    (WHEN MIN. R.F.=1)  AT K=  16, I=   1, J=  90


 TOTAL NUMBER OF POINT SOURCES/SINKS PRESENT IN THE FLOW MODEL =    30

 MAXIMUM STEPSIZE WHICH MEETS STABILITY CRITERION OF THE SINK & SOURCE TERM
 =  12.24    (WHEN MIN. R.F.=1)  AT K=  17, I=   1, J=  91

 MAXIMUM STEPSIZE WHICH MEETS STABILITY CRITERION OF THE DISPERSION TERM
 =  4.031    (WHEN MIN. R.F.=1)  AT K=  17, I=   1, J=  90
     1 CALLS TO GCG PACKAGE FOR TRANSPORT TIME STEP   9 IN FLOW TIME STEP   1 STRESS PERIOD   1
     8 TOTAL ITERATIONS
     1 CALLS TO GCG PACKAGE FOR TRANSPORT TIME STEP   9 IN FLOW TIME STEP   1 STRESS PERIOD   1
    10 TOTAL ITERATIONS
 
 SOLVING FOR HEAD 


     2 CALLS TO PCG ROUTINE FOR TIME STEP   1 IN STRESS PERIOD    1
     8 TOTAL ITERATIONS

 MAXIMUM HEAD CHANGE FOR EACH ITERATION (1 INDICATES THE FIRST INNER ITERATION):

    HEAD CHANGE    HEAD CHANGE    HEAD CHANGE    HEAD CHANGE    HEAD CHANGE 
   LAYER,ROW,COL  LAYER,ROW,COL  LAYER,ROW,COL  LAYER,ROW,COL  LAYER,ROW,COL
 ---------------------------------------------------------------------------
  1 -0.1359E-01  0  0.4052E-02  0  0.2484E-02  0  0.8636E-02  0 -0.1076E-01
   ( 15,  1, 86)  ( 17,  1, 89)  (  8,  1, 12)  ( 11,  1, 55)  ( 11,  1, 55)
  0  0.2425E-02  0  0.8959E-03  1  0.8409E-03
   ( 11,  1, 56)  ( 11,  1, 64)  ( 11,  1, 49)

 MAXIMUM RESIDUAL FOR EACH ITERATION (1 INDICATES THE FIRST INNER ITERATION):

    RESIDUAL       RESIDUAL       RESIDUAL       RESIDUAL       RESIDUAL    
   LAYER,ROW,COL  LAYER,ROW,COL  LAYER,ROW,COL  LAYER,ROW,COL  LAYER,ROW,COL
 ---------------------------------------------------------------------------
  1 -0.1389E+06  0  0.9883E+05  0  0.9738E+05  0  0.1648E+05  0  -4676.    
   ( 21,  1, 89)  ( 19,  1, 89)  ( 19,  1, 89)  ( 19,  1, 89)  ( 17,  1, 88)
  0  -2830.      0  -2147.      1  -1853.    
   ( 22,  1, 87)  ( 22,  1, 87)  ( 22,  1, 87)


 FLOW MODEL IS TRANSIENT
 FLOW MODEL CONTAINS CONSTANT-HEAD CELLS


 MAXIMUM STEPSIZE DURING WHICH ANY PARTICLE CANNOT MOVE MORE THAN ONE CELL
 =  13.25    (WHEN MIN. R.F.=1)  AT K=  17, I=   1, J=  90

 MAXIMUM STEPSIZE WHICH MEETS STABILITY CRITERION OF THE ADVECTION TERM
 (FOR PURE FINITE-DIFFERENCE OPTION, MIXELM=0) 
 =  8.003    (WHEN MIN. R.F.=1)  AT K=  16, I=   1, J=  90


 TOTAL NUMBER OF POINT SOURCES/SINKS PRESENT IN THE FLOW MODEL =    30

 MAXIMUM STEPSIZE WHICH MEETS STABILITY CRITERION OF THE SINK & SOURCE TERM
 =  12.19    (WHEN MIN. R.F.=1)  AT K=  17, I=   1, J=  91

 MAXIMUM STEPSIZE WHICH MEETS STABILITY CRITERION OF THE DISPERSION TERM
 =  4.395    (WHEN MIN. R.F.=1)  AT K=  17, I=   1, J=  90
     1 CALLS TO GCG PACKAGE FOR TRANSPORT TIME STEP  10 IN FLOW TIME STEP   1 STRESS PERIOD   1
    10 TOTAL ITERATIONS
  MAXIMUM CONCENTRATION CHANGES FOR EACH ITERATION:
  MAX. CHANGE LAYER,ROW,COL MAX. CHANGE LAYER,ROW,COL MAX. CHANGE LAYER,ROW,COL MAX. CHANGE LAYER,ROW,COL MAX. CHANGE LAYER,ROW,COL
 ------------------------------------------------------------------------------------------------------------------------------------
   0.4925E-01 ( 20,  1, 87)  0.3439E-02 ( 19,  1, 87)  0.2289E-02 ( 18,  1, 87)  0.2268E-03 ( 16,  1, 88)  0.1482E-03 ( 16,  1, 89)
   0.3121E-04 ( 16,  1, 90)  0.2414E-05 ( 21,  1, 78)  0.1579E-05 ( 15,  1, 89)  0.1347E-05 ( 16,  1, 89)  0.9623E-07 ( 17,  1, 89)
     1 CALLS TO GCG PACKAGE FOR TRANSPORT TIME STEP  10 IN FLOW TIME STEP   1 STRESS PERIOD   1
    10 TOTAL ITERATIONS
  MAXIMUM CONCENTRATION CHANGES FOR EACH ITERATION:
  MAX. CHANGE LAYER,ROW,COL MAX. CHANGE LAYER,ROW,COL MAX. CHANGE LAYER,ROW,COL MAX. CHANGE LAYER,ROW,COL MAX. CHANGE LAYER,ROW,COL
 ------------------------------------------------------------------------------------------------------------------------------------
   0.1189     ( 12,  1, 75)  0.3770E-01 ( 17,  1, 84)  0.1833E-01 ( 17,  1, 88)  0.4293E-02 ( 16,  1, 89)  0.1302E-02 ( 17,  1, 90)
   0.5113E-03 ( 17,  1, 90)  0.1304E-03 ( 17,  1, 90)  0.9182E-05 ( 17,  1, 88)  0.1128E-04 ( 17,  1, 88)  0.6031E-06 ( 16,  1, 88)



 >>>>>>>>>>>>>>>>>>>>>>>>>>>>>>>>>>>>>>>>>>>>>>>>>>>>>>>FOR COMPONENT NO. 01<<<<<<<<<<<<<<<<<<<<<<<<<<<<<<<<<<<<<<<<<<<<<<<<<<<<<<<


                                            -------------------------------------------
                                                      TRANSPORT STEP NO.   10
                                            -------------------------------------------

 TOTAL ELAPSED TIME SINCE BEGINNING OF SIMULATION =   500.0000    D   
 .....................................................................

                     CUMMULATIVE MASS BUDGETS AT END OF TRANSPORT STEP   10, TIME STEP    1, STRESS PERIOD    1
                     ------------------------------------------------------------------------------------------

                                                             IN                           OUT
                                                      ----------------             ----------------
                               CONSTANT CONCENTRATION:    0.000000                    0.000000    
                                        CONSTANT HEAD:   0.1988914E+08              -0.1984482E+08
                                                WELLS:    0.000000                    0.000000    
                                             RECHARGE:    0.000000                    0.000000    
                               1ST/0TH ORDER REACTION:    0.000000                    0.000000    
                                MASS STORAGE (SOLUTE):    2793620.                   -2837943.    
                            ---------------------------------------------------------------------------
                                              [TOTAL]:   0.2268280E+08 KG           -0.2268280E+08 KG  

                                                          NET (IN - OUT):    5.516597    
                                                   DISCREPANCY (PERCENT):   0.2432062E-04



 >>>>>>>>>>>>>>>>>>>>>>>>>>>>>>>>>>>>>>>>>>>>>>>>>>>>>>>FOR COMPONENT NO. 02<<<<<<<<<<<<<<<<<<<<<<<<<<<<<<<<<<<<<<<<<<<<<<<<<<<<<<<


                                            -------------------------------------------
                                                      TRANSPORT STEP NO.   10
                                            -------------------------------------------

 TOTAL ELAPSED TIME SINCE BEGINNING OF SIMULATION =   500.0000    D   
 .....................................................................

                     CUMMULATIVE MASS BUDGETS AT END OF TRANSPORT STEP   10, TIME STEP    1, STRESS PERIOD    1
                     ------------------------------------------------------------------------------------------

                                                             IN                           OUT
                                                      ----------------             ----------------
                               CONSTANT CONCENTRATION:    0.000000                    0.000000    
                                        CONSTANT HEAD:    0.000000                  -0.1653158E+09
                                                WELLS:    0.000000                    0.000000    
                                             RECHARGE:    0.000000                    0.000000    
                               1ST/0TH ORDER REACTION:   0.8275000E+10                0.000000    
                                MASS STORAGE (SOLUTE):    0.000000                  -0.8109684E+10
                            ---------------------------------------------------------------------------
                                              [TOTAL]:   0.8275001E+10 KG           -0.8275001E+10 KG  

                                                          NET (IN - OUT):   -10.45650    
                                                   DISCREPANCY (PERCENT):  -0.1263625E-06
 
 SOLVING FOR HEAD 


     2 CALLS TO PCG ROUTINE FOR TIME STEP   1 IN STRESS PERIOD    1
     9 TOTAL ITERATIONS

 MAXIMUM HEAD CHANGE FOR EACH ITERATION (1 INDICATES THE FIRST INNER ITERATION):

    HEAD CHANGE    HEAD CHANGE    HEAD CHANGE    HEAD CHANGE    HEAD CHANGE 
   LAYER,ROW,COL  LAYER,ROW,COL  LAYER,ROW,COL  LAYER,ROW,COL  LAYER,ROW,COL
 ---------------------------------------------------------------------------
  1  0.1376E-01  0  0.4765E-02  0 -0.4661E-02  0 -0.1561E-01  0  0.1396E-01
   ( 15,  1, 86)  ( 11,  1, 49)  (  8,  1, 12)  ( 11,  1, 49)  ( 11,  1, 49)
  0 -0.2576E-02  0 -0.1306E-02  0  0.6222E-03  1 -0.6981E-03
   ( 11,  1, 54)  ( 11,  1, 49)  ( 11,  1, 52)  ( 11,  1, 53)

 MAXIMUM RESIDUAL FOR EACH ITERATION (1 INDICATES THE FIRST INNER ITERATION):

    RESIDUAL       RESIDUAL       RESIDUAL       RESIDUAL       RESIDUAL    
   LAYER,ROW,COL  LAYER,ROW,COL  LAYER,ROW,COL  LAYER,ROW,COL  LAYER,ROW,COL
 ---------------------------------------------------------------------------
  1  0.1386E+06  0 -0.9795E+05  0 -0.9727E+05  0 -0.4271E+05  0  -5528.    
   ( 21,  1, 89)  ( 19,  1, 89)  ( 19,  1, 89)  ( 19,  1, 89)  ( 17,  1, 87)
  0   2793.      0   2616.      0   1481.      1   1321.    
   ( 22,  1, 87)  ( 22,  1, 87)  ( 22,  1, 87)  ( 22,  1, 87)


 FLOW MODEL IS TRANSIENT
 FLOW MODEL CONTAINS CONSTANT-HEAD CELLS


 MAXIMUM STEPSIZE DURING WHICH ANY PARTICLE CANNOT MOVE MORE THAN ONE CELL
 =  12.87    (WHEN MIN. R.F.=1)  AT K=  17, I=   1, J=  90

 MAXIMUM STEPSIZE WHICH MEETS STABILITY CRITERION OF THE ADVECTION TERM
 (FOR PURE FINITE-DIFFERENCE OPTION, MIXELM=0) 
 =  8.037    (WHEN MIN. R.F.=1)  AT K=  16, I=   1, J=  90


 TOTAL NUMBER OF POINT SOURCES/SINKS PRESENT IN THE FLOW MODEL =    30

 MAXIMUM STEPSIZE WHICH MEETS STABILITY CRITERION OF THE SINK & SOURCE TERM
 =  12.24    (WHEN MIN. R.F.=1)  AT K=  17, I=   1, J=  91

 MAXIMUM STEPSIZE WHICH MEETS STABILITY CRITERION OF THE DISPERSION TERM
 =  4.037    (WHEN MIN. R.F.=1)  AT K=  17, I=   1, J=  90
     1 CALLS TO GCG PACKAGE FOR TRANSPORT TIME STEP  11 IN FLOW TIME STEP   1 STRESS PERIOD   1
     8 TOTAL ITERATIONS
     1 CALLS TO GCG PACKAGE FOR TRANSPORT TIME STEP  11 IN FLOW TIME STEP   1 STRESS PERIOD   1
    10 TOTAL ITERATIONS
 
 SOLVING FOR HEAD 


     2 CALLS TO PCG ROUTINE FOR TIME STEP   1 IN STRESS PERIOD    1
     8 TOTAL ITERATIONS

 MAXIMUM HEAD CHANGE FOR EACH ITERATION (1 INDICATES THE FIRST INNER ITERATION):

    HEAD CHANGE    HEAD CHANGE    HEAD CHANGE    HEAD CHANGE    HEAD CHANGE 
   LAYER,ROW,COL  LAYER,ROW,COL  LAYER,ROW,COL  LAYER,ROW,COL  LAYER,ROW,COL
 ---------------------------------------------------------------------------
  1 -0.1385E-01  0  0.4261E-02  0  0.3162E-02  0  0.9516E-02  0 -0.9325E-02
   ( 15,  1, 86)  ( 17,  1, 89)  (  8,  1, 12)  ( 11,  1, 51)  ( 11,  1, 50)
  0 -0.1523E-02  0  0.9204E-03  1 -0.5551E-03
   ( 11,  1, 70)  ( 11,  1, 52)  ( 11,  1, 52)

 MAXIMUM RESIDUAL FOR EACH ITERATION (1 INDICATES THE FIRST INNER ITERATION):

    RESIDUAL       RESIDUAL       RESIDUAL       RESIDUAL       RESIDUAL    
   LAYER,ROW,COL  LAYER,ROW,COL  LAYER,ROW,COL  LAYER,ROW,COL  LAYER,ROW,COL
 ---------------------------------------------------------------------------
  1 -0.1413E+06  0  0.1009E+06  0  0.9986E+05  0  0.3264E+05  0  -5760.    
   ( 21,  1, 89)  ( 19,  1, 89)  ( 19,  1, 89)  ( 19,  1, 89)  ( 17,  1, 88)
  0  -2837.      0  -2521.      1  -2068.    
   ( 22,  1, 87)  ( 22,  1, 87)  ( 22,  1, 87)


 FLOW MODEL IS TRANSIENT
 FLOW MODEL CONTAINS CONSTANT-HEAD CELLS


 MAXIMUM STEPSIZE DURING WHICH ANY PARTICLE CANNOT MOVE MORE THAN ONE CELL
 =  13.21    (WHEN MIN. R.F.=1)  AT K=  17, I=   1, J=  90

 MAXIMUM STEPSIZE WHICH MEETS STABILITY CRITERION OF THE ADVECTION TERM
 (FOR PURE FINITE-DIFFERENCE OPTION, MIXELM=0) 
 =  7.987    (WHEN MIN. R.F.=1)  AT K=  16, I=   1, J=  90


 TOTAL NUMBER OF POINT SOURCES/SINKS PRESENT IN THE FLOW MODEL =    30

 MAXIMUM STEPSIZE WHICH MEETS STABILITY CRITERION OF THE SINK & SOURCE TERM
 =  12.14    (WHEN MIN. R.F.=1)  AT K=  17, I=   1, J=  91

 MAXIMUM STEPSIZE WHICH MEETS STABILITY CRITERION OF THE DISPERSION TERM
 =  4.374    (WHEN MIN. R.F.=1)  AT K=  17, I=   1, J=  90
     1 CALLS TO GCG PACKAGE FOR TRANSPORT TIME STEP  12 IN FLOW TIME STEP   1 STRESS PERIOD   1
    10 TOTAL ITERATIONS
     1 CALLS TO GCG PACKAGE FOR TRANSPORT TIME STEP  12 IN FLOW TIME STEP   1 STRESS PERIOD   1
    10 TOTAL ITERATIONS
 
 SOLVING FOR HEAD 


     2 CALLS TO PCG ROUTINE FOR TIME STEP   1 IN STRESS PERIOD    1
     9 TOTAL ITERATIONS

 MAXIMUM HEAD CHANGE FOR EACH ITERATION (1 INDICATES THE FIRST INNER ITERATION):

    HEAD CHANGE    HEAD CHANGE    HEAD CHANGE    HEAD CHANGE    HEAD CHANGE 
   LAYER,ROW,COL  LAYER,ROW,COL  LAYER,ROW,COL  LAYER,ROW,COL  LAYER,ROW,COL
 ---------------------------------------------------------------------------
  1  0.1392E-01  0 -0.7124E-02  0 -0.5571E-02  0  0.1283E-01  0 -0.8012E-02
   ( 15,  1, 86)  ( 11,  1, 52)  (  8,  1, 12)  ( 11,  1, 52)  ( 11,  1, 52)
  0 -0.2233E-02  0 -0.1273E-02  0  0.9042E-03  1 -0.7871E-03
   ( 11,  1, 51)  ( 11,  1, 62)  ( 11,  1, 69)  ( 11,  1, 68)

 MAXIMUM RESIDUAL FOR EACH ITERATION (1 INDICATES THE FIRST INNER ITERATION):

    RESIDUAL       RESIDUAL       RESIDUAL       RESIDUAL       RESIDUAL    
   LAYER,ROW,COL  LAYER,ROW,COL  LAYER,ROW,COL  LAYER,ROW,COL  LAYER,ROW,COL
 ---------------------------------------------------------------------------
  1  0.1390E+06  0 -0.9911E+05  0 -0.9859E+05  0 -0.7114E+05  0   5864.    
   ( 21,  1, 89)  ( 19,  1, 89)  ( 19,  1, 89)  ( 19,  1, 89)  ( 17,  1, 88)
  0   2966.      0   2601.      0   1239.      1   1103.    
   ( 17,  1, 88)  ( 22,  1, 87)  ( 22,  1, 87)  ( 22,  1, 87)


 FLOW MODEL IS TRANSIENT
 FLOW MODEL CONTAINS CONSTANT-HEAD CELLS


 MAXIMUM STEPSIZE DURING WHICH ANY PARTICLE CANNOT MOVE MORE THAN ONE CELL
 =  12.85    (WHEN MIN. R.F.=1)  AT K=  17, I=   1, J=  90

 MAXIMUM STEPSIZE WHICH MEETS STABILITY CRITERION OF THE ADVECTION TERM
 (FOR PURE FINITE-DIFFERENCE OPTION, MIXELM=0) 
 =  8.032    (WHEN MIN. R.F.=1)  AT K=  16, I=   1, J=  90


 TOTAL NUMBER OF POINT SOURCES/SINKS PRESENT IN THE FLOW MODEL =    30

 MAXIMUM STEPSIZE WHICH MEETS STABILITY CRITERION OF THE SINK & SOURCE TERM
 =  12.21    (WHEN MIN. R.F.=1)  AT K=  17, I=   1, J=  91

 MAXIMUM STEPSIZE WHICH MEETS STABILITY CRITERION OF THE DISPERSION TERM
 =  4.024    (WHEN MIN. R.F.=1)  AT K=  17, I=   1, J=  90
     1 CALLS TO GCG PACKAGE FOR TRANSPORT TIME STEP  13 IN FLOW TIME STEP   1 STRESS PERIOD   1
     8 TOTAL ITERATIONS
     1 CALLS TO GCG PACKAGE FOR TRANSPORT TIME STEP  13 IN FLOW TIME STEP   1 STRESS PERIOD   1
    10 TOTAL ITERATIONS
 
 SOLVING FOR HEAD 


     2 CALLS TO PCG ROUTINE FOR TIME STEP   1 IN STRESS PERIOD    1
     9 TOTAL ITERATIONS

 MAXIMUM HEAD CHANGE FOR EACH ITERATION (1 INDICATES THE FIRST INNER ITERATION):

    HEAD CHANGE    HEAD CHANGE    HEAD CHANGE    HEAD CHANGE    HEAD CHANGE 
   LAYER,ROW,COL  LAYER,ROW,COL  LAYER,ROW,COL  LAYER,ROW,COL  LAYER,ROW,COL
 ---------------------------------------------------------------------------
  1 -0.1378E-01  0  0.4226E-02  0  0.3415E-02  0  0.9834E-02  0 -0.1083E-01
   ( 15,  1, 86)  ( 17,  1, 89)  (  8,  1, 12)  ( 11,  1, 70)  ( 11,  1, 68)
  0  0.1331E-02  0 -0.1006E-02  0  0.9425E-03  1 -0.9614E-03
   ( 11,  1, 62)  ( 11,  1, 60)  ( 11,  1, 70)  ( 11,  1, 70)

 MAXIMUM RESIDUAL FOR EACH ITERATION (1 INDICATES THE FIRST INNER ITERATION):

    RESIDUAL       RESIDUAL       RESIDUAL       RESIDUAL       RESIDUAL    
   LAYER,ROW,COL  LAYER,ROW,COL  LAYER,ROW,COL  LAYER,ROW,COL  LAYER,ROW,COL
 ---------------------------------------------------------------------------
  1 -0.1377E+06  0  0.9757E+05  0  0.9665E+05  0  0.2793E+05  0  -5597.    
   ( 21,  1, 89)  ( 19,  1, 89)  ( 19,  1, 89)  ( 19,  1, 89)  ( 17,  1, 88)
  0  -2838.      0  -2577.      0  -869.4      1  -748.2    
   ( 22,  1, 87)  ( 22,  1, 87)  ( 22,  1, 87)  ( 22,  1, 87)


 FLOW MODEL IS TRANSIENT
 FLOW MODEL CONTAINS CONSTANT-HEAD CELLS


 MAXIMUM STEPSIZE DURING WHICH ANY PARTICLE CANNOT MOVE MORE THAN ONE CELL
 =  13.22    (WHEN MIN. R.F.=1)  AT K=  17, I=   1, J=  90

 MAXIMUM STEPSIZE WHICH MEETS STABILITY CRITERION OF THE ADVECTION TERM
 (FOR PURE FINITE-DIFFERENCE OPTION, MIXELM=0) 
 =  7.991    (WHEN MIN. R.F.=1)  AT K=  16, I=   1, J=  90


 TOTAL NUMBER OF POINT SOURCES/SINKS PRESENT IN THE FLOW MODEL =    30

 MAXIMUM STEPSIZE WHICH MEETS STABILITY CRITERION OF THE SINK & SOURCE TERM
 =  12.15    (WHEN MIN. R.F.=1)  AT K=  17, I=   1, J=  91

 MAXIMUM STEPSIZE WHICH MEETS STABILITY CRITERION OF THE DISPERSION TERM
 =  4.384    (WHEN MIN. R.F.=1)  AT K=  17, I=   1, J=  90
     1 CALLS TO GCG PACKAGE FOR TRANSPORT TIME STEP  14 IN FLOW TIME STEP   1 STRESS PERIOD   1
     9 TOTAL ITERATIONS
     1 CALLS TO GCG PACKAGE FOR TRANSPORT TIME STEP  14 IN FLOW TIME STEP   1 STRESS PERIOD   1
    10 TOTAL ITERATIONS
 
 SOLVING FOR HEAD 


     2 CALLS TO PCG ROUTINE FOR TIME STEP   1 IN STRESS PERIOD    1
     9 TOTAL ITERATIONS

 MAXIMUM HEAD CHANGE FOR EACH ITERATION (1 INDICATES THE FIRST INNER ITERATION):

    HEAD CHANGE    HEAD CHANGE    HEAD CHANGE    HEAD CHANGE    HEAD CHANGE 
   LAYER,ROW,COL  LAYER,ROW,COL  LAYER,ROW,COL  LAYER,ROW,COL  LAYER,ROW,COL
 ---------------------------------------------------------------------------
  1  0.1350E-01  0 -0.3886E-02  0 -0.3052E-02  0  0.1240E-01  0 -0.1166E-01
   ( 15,  1, 86)  ( 17,  1, 89)  (  8,  1, 12)  ( 11,  1, 54)  ( 11,  1, 54)
  0  0.1643E-02  0 -0.1103E-02  0 -0.8114E-03  1  0.6969E-03
   (  6,  1, 43)  ( 11,  1, 62)  ( 11,  1, 50)  ( 11,  1, 49)

 MAXIMUM RESIDUAL FOR EACH ITERATION (1 INDICATES THE FIRST INNER ITERATION):

    RESIDUAL       RESIDUAL       RESIDUAL       RESIDUAL       RESIDUAL    
   LAYER,ROW,COL  LAYER,ROW,COL  LAYER,ROW,COL  LAYER,ROW,COL  LAYER,ROW,COL
 ---------------------------------------------------------------------------
  1  0.1371E+06  0 -0.9689E+05  0 -0.9585E+05  0 -0.2836E+05  0  -5598.    
   ( 21,  1, 89)  ( 19,  1, 89)  ( 19,  1, 89)  ( 19,  1, 89)  ( 17,  1, 87)
  0   2850.      0   2559.      0   1013.      1   893.4    
   ( 22,  1, 87)  ( 22,  1, 87)  ( 22,  1, 87)  ( 22,  1, 87)


 FLOW MODEL IS TRANSIENT
 FLOW MODEL CONTAINS CONSTANT-HEAD CELLS


 MAXIMUM STEPSIZE DURING WHICH ANY PARTICLE CANNOT MOVE MORE THAN ONE CELL
 =  12.82    (WHEN MIN. R.F.=1)  AT K=  17, I=   1, J=  90

 MAXIMUM STEPSIZE WHICH MEETS STABILITY CRITERION OF THE ADVECTION TERM
 (FOR PURE FINITE-DIFFERENCE OPTION, MIXELM=0) 
 =  8.019    (WHEN MIN. R.F.=1)  AT K=  16, I=   1, J=  90


 TOTAL NUMBER OF POINT SOURCES/SINKS PRESENT IN THE FLOW MODEL =    30

 MAXIMUM STEPSIZE WHICH MEETS STABILITY CRITERION OF THE SINK & SOURCE TERM
 =  12.17    (WHEN MIN. R.F.=1)  AT K=  17, I=   1, J=  91

 MAXIMUM STEPSIZE WHICH MEETS STABILITY CRITERION OF THE DISPERSION TERM
 =  4.019    (WHEN MIN. R.F.=1)  AT K=  17, I=   1, J=  90
     1 CALLS TO GCG PACKAGE FOR TRANSPORT TIME STEP  15 IN FLOW TIME STEP   1 STRESS PERIOD   1
     8 TOTAL ITERATIONS
  MAXIMUM CONCENTRATION CHANGES FOR EACH ITERATION:
  MAX. CHANGE LAYER,ROW,COL MAX. CHANGE LAYER,ROW,COL MAX. CHANGE LAYER,ROW,COL MAX. CHANGE LAYER,ROW,COL MAX. CHANGE LAYER,ROW,COL
 ------------------------------------------------------------------------------------------------------------------------------------
   0.5287E-01 ( 20,  1, 87)  0.4320E-02 ( 19,  1, 89)  0.2191E-02 ( 17,  1, 86)  0.4944E-03 ( 20,  1, 89)  0.9829E-04 ( 16,  1, 89)
   0.2072E-04 ( 20,  1, 89)  0.2059E-04 ( 16,  1, 90)  0.7462E-06 ( 17,  1, 90)
     1 CALLS TO GCG PACKAGE FOR TRANSPORT TIME STEP  15 IN FLOW TIME STEP   1 STRESS PERIOD   1
    10 TOTAL ITERATIONS
  MAXIMUM CONCENTRATION CHANGES FOR EACH ITERATION:
  MAX. CHANGE LAYER,ROW,COL MAX. CHANGE LAYER,ROW,COL MAX. CHANGE LAYER,ROW,COL MAX. CHANGE LAYER,ROW,COL MAX. CHANGE LAYER,ROW,COL
 ------------------------------------------------------------------------------------------------------------------------------------
   0.9089E-01 ( 19,  1, 89)  0.2401E-01 ( 17,  1, 85)  0.1109E-01 ( 17,  1, 87)  0.2412E-02 ( 16,  1, 89)  0.7894E-03 ( 17,  1, 90)
   0.3115E-03 ( 17,  1, 90)  0.1120E-03 ( 17,  1, 90)  0.5825E-05 ( 17,  1, 87)  0.8994E-05 ( 16,  1, 89)  0.6063E-06 ( 17,  1, 83)
 
 SOLVING FOR HEAD 


     2 CALLS TO PCG ROUTINE FOR TIME STEP   1 IN STRESS PERIOD    1
     8 TOTAL ITERATIONS

 MAXIMUM HEAD CHANGE FOR EACH ITERATION (1 INDICATES THE FIRST INNER ITERATION):

    HEAD CHANGE    HEAD CHANGE    HEAD CHANGE    HEAD CHANGE    HEAD CHANGE 
   LAYER,ROW,COL  LAYER,ROW,COL  LAYER,ROW,COL  LAYER,ROW,COL  LAYER,ROW,COL
 ---------------------------------------------------------------------------
  1 -0.1361E-01  0  0.3888E-02  0  0.2363E-02  0 -0.1027E-01  0  0.9804E-02
   ( 15,  1, 86)  ( 17,  1, 89)  (  8,  1, 12)  ( 11,  1, 49)  ( 11,  1, 49)
  0 -0.1566E-02  0  0.9463E-03  1  0.6201E-03
   ( 11,  1, 40)  ( 11,  1, 69)  ( 11,  1, 50)

 MAXIMUM RESIDUAL FOR EACH ITERATION (1 INDICATES THE FIRST INNER ITERATION):

    RESIDUAL       RESIDUAL       RESIDUAL       RESIDUAL       RESIDUAL    
   LAYER,ROW,COL  LAYER,ROW,COL  LAYER,ROW,COL  LAYER,ROW,COL  LAYER,ROW,COL
 ---------------------------------------------------------------------------
  1 -0.1364E+06  0  0.9612E+05  0  0.9439E+05  0  0.3222E+05  0   5962.    
   ( 21,  1, 89)  ( 19,  1, 89)  ( 19,  1, 89)  ( 19,  1, 89)  ( 17,  1, 87)
  0  -2823.      0  -2540.      1  -2023.    
   ( 22,  1, 87)  ( 22,  1, 87)  ( 22,  1, 87)


 FLOW MODEL IS TRANSIENT
 FLOW MODEL CONTAINS CONSTANT-HEAD CELLS


 MAXIMUM STEPSIZE DURING WHICH ANY PARTICLE CANNOT MOVE MORE THAN ONE CELL
 =  13.20    (WHEN MIN. R.F.=1)  AT K=  17, I=   1, J=  90

 MAXIMUM STEPSIZE WHICH MEETS STABILITY CRITERION OF THE ADVECTION TERM
 (FOR PURE FINITE-DIFFERENCE OPTION, MIXELM=0) 
 =  7.988    (WHEN MIN. R.F.=1)  AT K=  16, I=   1, J=  90


 TOTAL NUMBER OF POINT SOURCES/SINKS PRESENT IN THE FLOW MODEL =    30

 MAXIMUM STEPSIZE WHICH MEETS STABILITY CRITERION OF THE SINK & SOURCE TERM
 =  12.13    (WHEN MIN. R.F.=1)  AT K=  17, I=   1, J=  91

 MAXIMUM STEPSIZE WHICH MEETS STABILITY CRITERION OF THE DISPERSION TERM
 =  4.365    (WHEN MIN. R.F.=1)  AT K=  17, I=   1, J=  90
     1 CALLS TO GCG PACKAGE FOR TRANSPORT TIME STEP  16 IN FLOW TIME STEP   1 STRESS PERIOD   1
    10 TOTAL ITERATIONS
     1 CALLS TO GCG PACKAGE FOR TRANSPORT TIME STEP  16 IN FLOW TIME STEP   1 STRESS PERIOD   1
    10 TOTAL ITERATIONS
 
 SOLVING FOR HEAD 


     2 CALLS TO PCG ROUTINE FOR TIME STEP   1 IN STRESS PERIOD    1
     9 TOTAL ITERATIONS

 MAXIMUM HEAD CHANGE FOR EACH ITERATION (1 INDICATES THE FIRST INNER ITERATION):

    HEAD CHANGE    HEAD CHANGE    HEAD CHANGE    HEAD CHANGE    HEAD CHANGE 
   LAYER,ROW,COL  LAYER,ROW,COL  LAYER,ROW,COL  LAYER,ROW,COL  LAYER,ROW,COL
 ---------------------------------------------------------------------------
  1  0.1399E-01  0  0.7826E-02  0 -0.4894E-02  0 -0.9370E-02  0  0.7158E-02
   ( 15,  1, 86)  (  7,  1, 42)  (  7,  1, 12)  (  8,  1, 43)  (  8,  1, 44)
  0 -0.4607E-02  0 -0.1533E-02  0 -0.8657E-03  1 -0.7317E-03
   ( 11,  1, 69)  ( 11,  1, 50)  ( 11,  1, 63)  ( 11,  1, 55)

 MAXIMUM RESIDUAL FOR EACH ITERATION (1 INDICATES THE FIRST INNER ITERATION):

    RESIDUAL       RESIDUAL       RESIDUAL       RESIDUAL       RESIDUAL    
   LAYER,ROW,COL  LAYER,ROW,COL  LAYER,ROW,COL  LAYER,ROW,COL  LAYER,ROW,COL
 ---------------------------------------------------------------------------
  1  0.1354E+06  0 -0.9542E+05  0 -0.9482E+05  0 -0.7514E+05  0  -6135.    
   ( 21,  1, 89)  ( 19,  1, 89)  ( 19,  1, 89)  ( 19,  1, 89)  ( 17,  1, 87)
  0   3105.      0   2643.      0   1715.      1   1513.    
   ( 17,  1, 88)  ( 22,  1, 87)  ( 22,  1, 87)  ( 22,  1, 87)


 FLOW MODEL IS TRANSIENT
 FLOW MODEL CONTAINS CONSTANT-HEAD CELLS


 MAXIMUM STEPSIZE DURING WHICH ANY PARTICLE CANNOT MOVE MORE THAN ONE CELL
 =  12.88    (WHEN MIN. R.F.=1)  AT K=  17, I=   1, J=  90

 MAXIMUM STEPSIZE WHICH MEETS STABILITY CRITERION OF THE ADVECTION TERM
 (FOR PURE FINITE-DIFFERENCE OPTION, MIXELM=0) 
 =  8.040    (WHEN MIN. R.F.=1)  AT K=  16, I=   1, J=  90


 TOTAL NUMBER OF POINT SOURCES/SINKS PRESENT IN THE FLOW MODEL =    30

 MAXIMUM STEPSIZE WHICH MEETS STABILITY CRITERION OF THE SINK & SOURCE TERM
 =  12.24    (WHEN MIN. R.F.=1)  AT K=  17, I=   1, J=  91

 MAXIMUM STEPSIZE WHICH MEETS STABILITY CRITERION OF THE DISPERSION TERM
 =  4.039    (WHEN MIN. R.F.=1)  AT K=  17, I=   1, J=  90
     1 CALLS TO GCG PACKAGE FOR TRANSPORT TIME STEP  17 IN FLOW TIME STEP   1 STRESS PERIOD   1
     8 TOTAL ITERATIONS
     1 CALLS TO GCG PACKAGE FOR TRANSPORT TIME STEP  17 IN FLOW TIME STEP   1 STRESS PERIOD   1
    10 TOTAL ITERATIONS
 
 SOLVING FOR HEAD 


     2 CALLS TO PCG ROUTINE FOR TIME STEP   1 IN STRESS PERIOD    1
     9 TOTAL ITERATIONS

 MAXIMUM HEAD CHANGE FOR EACH ITERATION (1 INDICATES THE FIRST INNER ITERATION):

    HEAD CHANGE    HEAD CHANGE    HEAD CHANGE    HEAD CHANGE    HEAD CHANGE 
   LAYER,ROW,COL  LAYER,ROW,COL  LAYER,ROW,COL  LAYER,ROW,COL  LAYER,ROW,COL
 ---------------------------------------------------------------------------
  1 -0.1386E-01  0  0.4255E-02  0  0.3640E-02  0  0.1250E-01  0 -0.1294E-01
   ( 15,  1, 86)  ( 17,  1, 89)  (  8,  1, 12)  ( 11,  1, 55)  ( 11,  1, 55)
  0  0.1958E-02  0  0.1134E-02  0  0.7348E-03  1 -0.6523E-03
   ( 11,  1, 50)  ( 11,  1, 70)  ( 11,  1, 70)  ( 11,  1, 70)

 MAXIMUM RESIDUAL FOR EACH ITERATION (1 INDICATES THE FIRST INNER ITERATION):

    RESIDUAL       RESIDUAL       RESIDUAL       RESIDUAL       RESIDUAL    
   LAYER,ROW,COL  LAYER,ROW,COL  LAYER,ROW,COL  LAYER,ROW,COL  LAYER,ROW,COL
 ---------------------------------------------------------------------------
  1 -0.1379E+06  0  0.9827E+05  0  0.9738E+05  0  0.2501E+05  0  -5301.    
   ( 21,  1, 89)  ( 19,  1, 89)  ( 19,  1, 89)  ( 19,  1, 89)  ( 17,  1, 88)
  0  -2810.      0  -2572.      0  -1005.      1  -892.8    
   ( 22,  1, 87)  ( 22,  1, 87)  ( 22,  1, 87)  ( 22,  1, 87)


 FLOW MODEL IS TRANSIENT
 FLOW MODEL CONTAINS CONSTANT-HEAD CELLS


 MAXIMUM STEPSIZE DURING WHICH ANY PARTICLE CANNOT MOVE MORE THAN ONE CELL
 =  13.20    (WHEN MIN. R.F.=1)  AT K=  17, I=   1, J=  90

 MAXIMUM STEPSIZE WHICH MEETS STABILITY CRITERION OF THE ADVECTION TERM
 (FOR PURE FINITE-DIFFERENCE OPTION, MIXELM=0) 
 =  7.985    (WHEN MIN. R.F.=1)  AT K=  16, I=   1, J=  90


 TOTAL NUMBER OF POINT SOURCES/SINKS PRESENT IN THE FLOW MODEL =    30

 MAXIMUM STEPSIZE WHICH MEETS STABILITY CRITERION OF THE SINK & SOURCE TERM
 =  12.15    (WHEN MIN. R.F.=1)  AT K=  17, I=   1, J=  91

 MAXIMUM STEPSIZE WHICH MEETS STABILITY CRITERION OF THE DISPERSION TERM
 =  4.374    (WHEN MIN. R.F.=1)  AT K=  17, I=   1, J=  90
     1 CALLS TO GCG PACKAGE FOR TRANSPORT TIME STEP  18 IN FLOW TIME STEP   1 STRESS PERIOD   1
     7 TOTAL ITERATIONS
     1 CALLS TO GCG PACKAGE FOR TRANSPORT TIME STEP  18 IN FLOW TIME STEP   1 STRESS PERIOD   1
    10 TOTAL ITERATIONS
 
 SOLVING FOR HEAD 


     2 CALLS TO PCG ROUTINE FOR TIME STEP   1 IN STRESS PERIOD    1
     9 TOTAL ITERATIONS

 MAXIMUM HEAD CHANGE FOR EACH ITERATION (1 INDICATES THE FIRST INNER ITERATION):

    HEAD CHANGE    HEAD CHANGE    HEAD CHANGE    HEAD CHANGE    HEAD CHANGE 
   LAYER,ROW,COL  LAYER,ROW,COL  LAYER,ROW,COL  LAYER,ROW,COL  LAYER,ROW,COL
 ---------------------------------------------------------------------------
  1  0.1357E-01  0 -0.3961E-02  0 -0.3416E-02  0 -0.8766E-02  0  0.9067E-02
   ( 15,  1, 86)  ( 17,  1, 89)  (  8,  1, 12)  (  7,  1, 44)  (  7,  1, 44)
  0 -0.1766E-02  0 -0.1186E-02  0 -0.7221E-03  1  0.5919E-03
   ( 11,  1, 68)  ( 11,  1, 50)  ( 11,  1, 64)  ( 11,  1, 64)

 MAXIMUM RESIDUAL FOR EACH ITERATION (1 INDICATES THE FIRST INNER ITERATION):

    RESIDUAL       RESIDUAL       RESIDUAL       RESIDUAL       RESIDUAL    
   LAYER,ROW,COL  LAYER,ROW,COL  LAYER,ROW,COL  LAYER,ROW,COL  LAYER,ROW,COL
 ---------------------------------------------------------------------------
  1  0.1372E+06  0 -0.9724E+05  0 -0.9632E+05  0 -0.3159E+05  0  -5891.    
   ( 21,  1, 89)  ( 19,  1, 89)  ( 19,  1, 89)  ( 19,  1, 89)  ( 17,  1, 87)
  0   2829.      0   2545.      0   861.0      1   722.2    
   ( 22,  1, 87)  ( 22,  1, 87)  ( 22,  1, 87)  ( 22,  1, 87)


 FLOW MODEL IS TRANSIENT
 FLOW MODEL CONTAINS CONSTANT-HEAD CELLS


 MAXIMUM STEPSIZE DURING WHICH ANY PARTICLE CANNOT MOVE MORE THAN ONE CELL
 =  12.82    (WHEN MIN. R.F.=1)  AT K=  17, I=   1, J=  90

 MAXIMUM STEPSIZE WHICH MEETS STABILITY CRITERION OF THE ADVECTION TERM
 (FOR PURE FINITE-DIFFERENCE OPTION, MIXELM=0) 
 =  8.019    (WHEN MIN. R.F.=1)  AT K=  16, I=   1, J=  90


 TOTAL NUMBER OF POINT SOURCES/SINKS PRESENT IN THE FLOW MODEL =    30

 MAXIMUM STEPSIZE WHICH MEETS STABILITY CRITERION OF THE SINK & SOURCE TERM
 =  12.18    (WHEN MIN. R.F.=1)  AT K=  17, I=   1, J=  91

 MAXIMUM STEPSIZE WHICH MEETS STABILITY CRITERION OF THE DISPERSION TERM
 =  4.018    (WHEN MIN. R.F.=1)  AT K=  17, I=   1, J=  90
     1 CALLS TO GCG PACKAGE FOR TRANSPORT TIME STEP  19 IN FLOW TIME STEP   1 STRESS PERIOD   1
     8 TOTAL ITERATIONS
     1 CALLS TO GCG PACKAGE FOR TRANSPORT TIME STEP  19 IN FLOW TIME STEP   1 STRESS PERIOD   1
    10 TOTAL ITERATIONS
 
 SOLVING FOR HEAD 


     2 CALLS TO PCG ROUTINE FOR TIME STEP   1 IN STRESS PERIOD    1
     8 TOTAL ITERATIONS

 MAXIMUM HEAD CHANGE FOR EACH ITERATION (1 INDICATES THE FIRST INNER ITERATION):

    HEAD CHANGE    HEAD CHANGE    HEAD CHANGE    HEAD CHANGE    HEAD CHANGE 
   LAYER,ROW,COL  LAYER,ROW,COL  LAYER,ROW,COL  LAYER,ROW,COL  LAYER,ROW,COL
 ---------------------------------------------------------------------------
  1 -0.1355E-01  0  0.3847E-02  0  0.2433E-02  0  0.1166E-01  0 -0.1213E-01
   ( 15,  1, 86)  ( 17,  1, 89)  (  8,  1, 12)  ( 11,  1, 55)  ( 11,  1, 55)
  0 -0.2420E-02  0  0.9521E-03  1  0.5904E-03
   ( 11,  1, 67)  ( 11,  1, 69)  ( 11,  1, 35)

 MAXIMUM RESIDUAL FOR EACH ITERATION (1 INDICATES THE FIRST INNER ITERATION):

    RESIDUAL       RESIDUAL       RESIDUAL       RESIDUAL       RESIDUAL    
   LAYER,ROW,COL  LAYER,ROW,COL  LAYER,ROW,COL  LAYER,ROW,COL  LAYER,ROW,COL
 ---------------------------------------------------------------------------
  1 -0.1347E+06  0  0.9469E+05  0  0.9326E+05  0  0.2522E+05  0   5367.    
   ( 21,  1, 89)  ( 19,  1, 89)  ( 19,  1, 89)  ( 19,  1, 89)  ( 17,  1, 87)
  0  -2807.      0  -2564.      1  -1925.    
   ( 22,  1, 87)  ( 22,  1, 87)  ( 22,  1, 87)


 FLOW MODEL IS TRANSIENT
 FLOW MODEL CONTAINS CONSTANT-HEAD CELLS


 MAXIMUM STEPSIZE DURING WHICH ANY PARTICLE CANNOT MOVE MORE THAN ONE CELL
 =  13.21    (WHEN MIN. R.F.=1)  AT K=  17, I=   1, J=  90

 MAXIMUM STEPSIZE WHICH MEETS STABILITY CRITERION OF THE ADVECTION TERM
 (FOR PURE FINITE-DIFFERENCE OPTION, MIXELM=0) 
 =  7.994    (WHEN MIN. R.F.=1)  AT K=  16, I=   1, J=  90


 TOTAL NUMBER OF POINT SOURCES/SINKS PRESENT IN THE FLOW MODEL =    30

 MAXIMUM STEPSIZE WHICH MEETS STABILITY CRITERION OF THE SINK & SOURCE TERM
 =  12.15    (WHEN MIN. R.F.=1)  AT K=  17, I=   1, J=  91

 MAXIMUM STEPSIZE WHICH MEETS STABILITY CRITERION OF THE DISPERSION TERM
 =  4.372    (WHEN MIN. R.F.=1)  AT K=  17, I=   1, J=  90
     1 CALLS TO GCG PACKAGE FOR TRANSPORT TIME STEP  20 IN FLOW TIME STEP   1 STRESS PERIOD   1
    10 TOTAL ITERATIONS
  MAXIMUM CONCENTRATION CHANGES FOR EACH ITERATION:
  MAX. CHANGE LAYER,ROW,COL MAX. CHANGE LAYER,ROW,COL MAX. CHANGE LAYER,ROW,COL MAX. CHANGE LAYER,ROW,COL MAX. CHANGE LAYER,ROW,COL
 ------------------------------------------------------------------------------------------------------------------------------------
   0.4909E-01 ( 20,  1, 87)  0.3361E-02 ( 19,  1, 87)  0.2248E-02 ( 18,  1, 87)  0.2231E-03 ( 16,  1, 88)  0.1486E-03 ( 16,  1, 89)
   0.2906E-04 ( 16,  1, 90)  0.3466E-05 ( 21,  1, 78)  0.1492E-05 ( 16,  1, 89)  0.3871E-05 ( 16,  1, 89)  0.9338E-07 ( 17,  1, 89)
     1 CALLS TO GCG PACKAGE FOR TRANSPORT TIME STEP  20 IN FLOW TIME STEP   1 STRESS PERIOD   1
    10 TOTAL ITERATIONS
  MAXIMUM CONCENTRATION CHANGES FOR EACH ITERATION:
  MAX. CHANGE LAYER,ROW,COL MAX. CHANGE LAYER,ROW,COL MAX. CHANGE LAYER,ROW,COL MAX. CHANGE LAYER,ROW,COL MAX. CHANGE LAYER,ROW,COL
 ------------------------------------------------------------------------------------------------------------------------------------
   0.7376E-01 ( 20,  1, 88)  0.1762E-01 ( 17,  1, 86)  0.7699E-02 ( 17,  1, 86)  0.1594E-02 ( 17,  1, 89)  0.4224E-03 ( 16,  1, 89)
   0.1931E-03 ( 17,  1, 90)  0.6028E-04 ( 17,  1, 90)  0.2095E-05 ( 17,  1, 88)  0.1039E-04 ( 17,  1, 88)  0.2051E-06 ( 17,  1, 82)



 >>>>>>>>>>>>>>>>>>>>>>>>>>>>>>>>>>>>>>>>>>>>>>>>>>>>>>>FOR COMPONENT NO. 01<<<<<<<<<<<<<<<<<<<<<<<<<<<<<<<<<<<<<<<<<<<<<<<<<<<<<<<


                                            -------------------------------------------
                                                      TRANSPORT STEP NO.   20
                                            -------------------------------------------

 TOTAL ELAPSED TIME SINCE BEGINNING OF SIMULATION =   1000.000    D   
 .....................................................................

                     CUMMULATIVE MASS BUDGETS AT END OF TRANSPORT STEP   20, TIME STEP    1, STRESS PERIOD    1
                     ------------------------------------------------------------------------------------------

                                                             IN                           OUT
                                                      ----------------             ----------------
                               CONSTANT CONCENTRATION:    0.000000                    0.000000    
                                        CONSTANT HEAD:   0.3969938E+08              -0.3963513E+08
                                                WELLS:    0.000000                    0.000000    
                                             RECHARGE:    0.000000                    0.000000    
                               1ST/0TH ORDER REACTION:    0.000000                    0.000000    
                                MASS STORAGE (SOLUTE):    5571779.                   -5636034.    
                            ---------------------------------------------------------------------------
                                              [TOTAL]:   0.4527122E+08 KG           -0.4527122E+08 KG  

                                                          NET (IN - OUT):    2.118009    
                                                   DISCREPANCY (PERCENT):   0.4678489E-05



 >>>>>>>>>>>>>>>>>>>>>>>>>>>>>>>>>>>>>>>>>>>>>>>>>>>>>>>FOR COMPONENT NO. 02<<<<<<<<<<<<<<<<<<<<<<<<<<<<<<<<<<<<<<<<<<<<<<<<<<<<<<<


                                            -------------------------------------------
                                                      TRANSPORT STEP NO.   20
                                            -------------------------------------------

 TOTAL ELAPSED TIME SINCE BEGINNING OF SIMULATION =   1000.000    D   
 .....................................................................

                     CUMMULATIVE MASS BUDGETS AT END OF TRANSPORT STEP   20, TIME STEP    1, STRESS PERIOD    1
                     ------------------------------------------------------------------------------------------

                                                             IN                           OUT
                                                      ----------------             ----------------
                               CONSTANT CONCENTRATION:    0.000000                    0.000000    
                                        CONSTANT HEAD:    0.000000                  -0.5566230E+09
                                                WELLS:    0.000000                    0.000000    
                                             RECHARGE:    0.000000                    0.000000    
                               1ST/0TH ORDER REACTION:   0.1655000E+11                0.000000    
                                MASS STORAGE (SOLUTE):    4794271.                  -0.1599817E+11
                            ---------------------------------------------------------------------------
                                              [TOTAL]:   0.1655480E+11 KG           -0.1655480E+11 KG  

                                                          NET (IN - OUT):   -36.78138    
                                                   DISCREPANCY (PERCENT):  -0.2221796E-06
 
 SOLVING FOR HEAD 


     2 CALLS TO PCG ROUTINE FOR TIME STEP   1 IN STRESS PERIOD    1
     9 TOTAL ITERATIONS

 MAXIMUM HEAD CHANGE FOR EACH ITERATION (1 INDICATES THE FIRST INNER ITERATION):

    HEAD CHANGE    HEAD CHANGE    HEAD CHANGE    HEAD CHANGE    HEAD CHANGE 
   LAYER,ROW,COL  LAYER,ROW,COL  LAYER,ROW,COL  LAYER,ROW,COL  LAYER,ROW,COL
 ---------------------------------------------------------------------------
  1  0.1382E-01  0  0.7198E-02  0 -0.5017E-02  0  0.9172E-02  0 -0.6709E-02
   ( 15,  1, 86)  ( 11,  1, 35)  (  8,  1, 12)  (  8,  1, 50)  (  6,  1, 46)
  0 -0.5110E-02  0 -0.1533E-02  0 -0.8747E-03  1  0.7086E-03
   ( 11,  1, 56)  ( 11,  1, 63)  ( 11,  1, 51)  ( 11,  1, 51)

 MAXIMUM RESIDUAL FOR EACH ITERATION (1 INDICATES THE FIRST INNER ITERATION):

    RESIDUAL       RESIDUAL       RESIDUAL       RESIDUAL       RESIDUAL    
   LAYER,ROW,COL  LAYER,ROW,COL  LAYER,ROW,COL  LAYER,ROW,COL  LAYER,ROW,COL
 ---------------------------------------------------------------------------
  1  0.1355E+06  0 -0.9519E+05  0 -0.9460E+05  0 -0.7755E+05  0  -6724.    
   ( 21,  1, 89)  ( 19,  1, 89)  ( 19,  1, 89)  ( 19,  1, 89)  ( 17,  1, 87)
  0   3130.      0   2615.      0   1821.      1   1610.    
   ( 17,  1, 88)  ( 22,  1, 87)  ( 22,  1, 87)  ( 22,  1, 87)


 FLOW MODEL IS TRANSIENT
 FLOW MODEL CONTAINS CONSTANT-HEAD CELLS


 MAXIMUM STEPSIZE DURING WHICH ANY PARTICLE CANNOT MOVE MORE THAN ONE CELL
 =  12.88    (WHEN MIN. R.F.=1)  AT K=  17, I=   1, J=  90

 MAXIMUM STEPSIZE WHICH MEETS STABILITY CRITERION OF THE ADVECTION TERM
 (FOR PURE FINITE-DIFFERENCE OPTION, MIXELM=0) 
 =  8.042    (WHEN MIN. R.F.=1)  AT K=  16, I=   1, J=  90


 TOTAL NUMBER OF POINT SOURCES/SINKS PRESENT IN THE FLOW MODEL =    30

 MAXIMUM STEPSIZE WHICH MEETS STABILITY CRITERION OF THE SINK & SOURCE TERM
 =  12.25    (WHEN MIN. R.F.=1)  AT K=  17, I=   1, J=  91

 MAXIMUM STEPSIZE WHICH MEETS STABILITY CRITERION OF THE DISPERSION TERM
 =  4.042    (WHEN MIN. R.F.=1)  AT K=  17, I=   1, J=  90
     1 CALLS TO GCG PACKAGE FOR TRANSPORT TIME STEP  21 IN FLOW TIME STEP   1 STRESS PERIOD   1
     8 TOTAL ITERATIONS
     1 CALLS TO GCG PACKAGE FOR TRANSPORT TIME STEP  21 IN FLOW TIME STEP   1 STRESS PERIOD   1
    10 TOTAL ITERATIONS
 
 SOLVING FOR HEAD 


     2 CALLS TO PCG ROUTINE FOR TIME STEP   1 IN STRESS PERIOD    1
     8 TOTAL ITERATIONS

 MAXIMUM HEAD CHANGE FOR EACH ITERATION (1 INDICATES THE FIRST INNER ITERATION):

    HEAD CHANGE    HEAD CHANGE    HEAD CHANGE    HEAD CHANGE    HEAD CHANGE 
   LAYER,ROW,COL  LAYER,ROW,COL  LAYER,ROW,COL  LAYER,ROW,COL  LAYER,ROW,COL
 ---------------------------------------------------------------------------
  1 -0.1387E-01  0  0.4265E-02  0  0.4125E-02  0 -0.1312E-01  0  0.1268E-01
   ( 15,  1, 86)  ( 17,  1, 89)  (  8,  1, 12)  ( 11,  1, 51)  ( 11,  1, 51)
  0 -0.1460E-02  0  0.6657E-03  1  0.5134E-03
   ( 11,  1, 54)  ( 11,  1, 42)  (  8,  1, 46)

 MAXIMUM RESIDUAL FOR EACH ITERATION (1 INDICATES THE FIRST INNER ITERATION):

    RESIDUAL       RESIDUAL       RESIDUAL       RESIDUAL       RESIDUAL    
   LAYER,ROW,COL  LAYER,ROW,COL  LAYER,ROW,COL  LAYER,ROW,COL  LAYER,ROW,COL
 ---------------------------------------------------------------------------
  1 -0.1383E+06  0  0.9863E+05  0  0.9784E+05  0  0.3381E+05  0  -5526.    
   ( 21,  1, 89)  ( 19,  1, 89)  ( 19,  1, 89)  ( 19,  1, 89)  ( 17,  1, 88)
  0  -2809.      0  -2534.      1  -2048.    
   ( 22,  1, 87)  ( 22,  1, 87)  ( 22,  1, 87)


 FLOW MODEL IS TRANSIENT
 FLOW MODEL CONTAINS CONSTANT-HEAD CELLS


 MAXIMUM STEPSIZE DURING WHICH ANY PARTICLE CANNOT MOVE MORE THAN ONE CELL
 =  13.20    (WHEN MIN. R.F.=1)  AT K=  17, I=   1, J=  90

 MAXIMUM STEPSIZE WHICH MEETS STABILITY CRITERION OF THE ADVECTION TERM
 (FOR PURE FINITE-DIFFERENCE OPTION, MIXELM=0) 
 =  7.987    (WHEN MIN. R.F.=1)  AT K=  16, I=   1, J=  90


 TOTAL NUMBER OF POINT SOURCES/SINKS PRESENT IN THE FLOW MODEL =    30

 MAXIMUM STEPSIZE WHICH MEETS STABILITY CRITERION OF THE SINK & SOURCE TERM
 =  12.15    (WHEN MIN. R.F.=1)  AT K=  17, I=   1, J=  91

 MAXIMUM STEPSIZE WHICH MEETS STABILITY CRITERION OF THE DISPERSION TERM
 =  4.372    (WHEN MIN. R.F.=1)  AT K=  17, I=   1, J=  90
     1 CALLS TO GCG PACKAGE FOR TRANSPORT TIME STEP  22 IN FLOW TIME STEP   1 STRESS PERIOD   1
     8 TOTAL ITERATIONS
     1 CALLS TO GCG PACKAGE FOR TRANSPORT TIME STEP  22 IN FLOW TIME STEP   1 STRESS PERIOD   1
    10 TOTAL ITERATIONS
 
 SOLVING FOR HEAD 


     2 CALLS TO PCG ROUTINE FOR TIME STEP   1 IN STRESS PERIOD    1
     9 TOTAL ITERATIONS

 MAXIMUM HEAD CHANGE FOR EACH ITERATION (1 INDICATES THE FIRST INNER ITERATION):

    HEAD CHANGE    HEAD CHANGE    HEAD CHANGE    HEAD CHANGE    HEAD CHANGE 
   LAYER,ROW,COL  LAYER,ROW,COL  LAYER,ROW,COL  LAYER,ROW,COL  LAYER,ROW,COL
 ---------------------------------------------------------------------------
  1  0.1388E-01  0  0.8709E-02  0 -0.5012E-02  0 -0.9714E-02  0  0.6240E-02
   ( 15,  1, 86)  (  8,  1, 45)  (  7,  1, 12)  (  7,  1, 46)  ( 10,  1, 50)
  0 -0.4503E-02  0 -0.1616E-02  0 -0.6989E-03  1 -0.6165E-03
   ( 11,  1, 69)  ( 11,  1, 51)  ( 11,  1, 63)  ( 11,  1, 56)

 MAXIMUM RESIDUAL FOR EACH ITERATION (1 INDICATES THE FIRST INNER ITERATION):

    RESIDUAL       RESIDUAL       RESIDUAL       RESIDUAL       RESIDUAL    
   LAYER,ROW,COL  LAYER,ROW,COL  LAYER,ROW,COL  LAYER,ROW,COL  LAYER,ROW,COL
 ---------------------------------------------------------------------------
  1  0.1383E+06  0 -0.9853E+05  0 -0.9792E+05  0 -0.8069E+05  0   6274.    
   ( 21,  1, 89)  ( 19,  1, 89)  ( 19,  1, 89)  ( 19,  1, 89)  ( 17,  1, 88)
  0   2931.      0   2562.      0   1292.      1   1143.    
   ( 17,  1, 88)  ( 22,  1, 87)  ( 22,  1, 87)  ( 22,  1, 87)


 FLOW MODEL IS TRANSIENT
 FLOW MODEL CONTAINS CONSTANT-HEAD CELLS


 MAXIMUM STEPSIZE DURING WHICH ANY PARTICLE CANNOT MOVE MORE THAN ONE CELL
 =  12.85    (WHEN MIN. R.F.=1)  AT K=  17, I=   1, J=  90

 MAXIMUM STEPSIZE WHICH MEETS STABILITY CRITERION OF THE ADVECTION TERM
 (FOR PURE FINITE-DIFFERENCE OPTION, MIXELM=0) 
 =  8.034    (WHEN MIN. R.F.=1)  AT K=  16, I=   1, J=  90


 TOTAL NUMBER OF POINT SOURCES/SINKS PRESENT IN THE FLOW MODEL =    30

 MAXIMUM STEPSIZE WHICH MEETS STABILITY CRITERION OF THE SINK & SOURCE TERM
 =  12.22    (WHEN MIN. R.F.=1)  AT K=  17, I=   1, J=  91

 MAXIMUM STEPSIZE WHICH MEETS STABILITY CRITERION OF THE DISPERSION TERM
 =  4.023    (WHEN MIN. R.F.=1)  AT K=  17, I=   1, J=  90
     1 CALLS TO GCG PACKAGE FOR TRANSPORT TIME STEP  23 IN FLOW TIME STEP   1 STRESS PERIOD   1
     8 TOTAL ITERATIONS
     1 CALLS TO GCG PACKAGE FOR TRANSPORT TIME STEP  23 IN FLOW TIME STEP   1 STRESS PERIOD   1
    10 TOTAL ITERATIONS
 
 SOLVING FOR HEAD 


     2 CALLS TO PCG ROUTINE FOR TIME STEP   1 IN STRESS PERIOD    1
     9 TOTAL ITERATIONS

 MAXIMUM HEAD CHANGE FOR EACH ITERATION (1 INDICATES THE FIRST INNER ITERATION):

    HEAD CHANGE    HEAD CHANGE    HEAD CHANGE    HEAD CHANGE    HEAD CHANGE 
   LAYER,ROW,COL  LAYER,ROW,COL  LAYER,ROW,COL  LAYER,ROW,COL  LAYER,ROW,COL
 ---------------------------------------------------------------------------
  1 -0.1373E-01  0  0.4219E-02  0  0.3369E-02  0  0.1003E-01  0 -0.1138E-01
   ( 15,  1, 86)  ( 17,  1, 89)  (  8,  1, 12)  ( 11,  1, 55)  ( 11,  1, 55)
  0  0.2173E-02  0  0.1233E-02  0  0.6968E-03  1 -0.4142E-03
   ( 11,  1, 52)  ( 11,  1, 70)  ( 11,  1, 50)  ( 11,  1, 70)

 MAXIMUM RESIDUAL FOR EACH ITERATION (1 INDICATES THE FIRST INNER ITERATION):

    RESIDUAL       RESIDUAL       RESIDUAL       RESIDUAL       RESIDUAL    
   LAYER,ROW,COL  LAYER,ROW,COL  LAYER,ROW,COL  LAYER,ROW,COL  LAYER,ROW,COL
 ---------------------------------------------------------------------------
  1 -0.1363E+06  0  0.9653E+05  0  0.9561E+05  0  0.2134E+05  0  -5180.    
   ( 21,  1, 89)  ( 19,  1, 89)  ( 19,  1, 89)  ( 19,  1, 89)  ( 17,  1, 88)
  0  -2826.      0  -2417.      0  -740.6      1  -651.9    
   ( 22,  1, 87)  ( 22,  1, 87)  ( 22,  1, 87)  ( 22,  1, 87)


 FLOW MODEL IS TRANSIENT
 FLOW MODEL CONTAINS CONSTANT-HEAD CELLS


 MAXIMUM STEPSIZE DURING WHICH ANY PARTICLE CANNOT MOVE MORE THAN ONE CELL
 =  13.22    (WHEN MIN. R.F.=1)  AT K=  17, I=   1, J=  90

 MAXIMUM STEPSIZE WHICH MEETS STABILITY CRITERION OF THE ADVECTION TERM
 (FOR PURE FINITE-DIFFERENCE OPTION, MIXELM=0) 
 =  7.993    (WHEN MIN. R.F.=1)  AT K=  16, I=   1, J=  90


 TOTAL NUMBER OF POINT SOURCES/SINKS PRESENT IN THE FLOW MODEL =    30

 MAXIMUM STEPSIZE WHICH MEETS STABILITY CRITERION OF THE SINK & SOURCE TERM
 =  12.16    (WHEN MIN. R.F.=1)  AT K=  17, I=   1, J=  91

 MAXIMUM STEPSIZE WHICH MEETS STABILITY CRITERION OF THE DISPERSION TERM
 =  4.384    (WHEN MIN. R.F.=1)  AT K=  17, I=   1, J=  90
     1 CALLS TO GCG PACKAGE FOR TRANSPORT TIME STEP  24 IN FLOW TIME STEP   1 STRESS PERIOD   1
     9 TOTAL ITERATIONS
     1 CALLS TO GCG PACKAGE FOR TRANSPORT TIME STEP  24 IN FLOW TIME STEP   1 STRESS PERIOD   1
    10 TOTAL ITERATIONS
 
 SOLVING FOR HEAD 


     2 CALLS TO PCG ROUTINE FOR TIME STEP   1 IN STRESS PERIOD    1
     9 TOTAL ITERATIONS

 MAXIMUM HEAD CHANGE FOR EACH ITERATION (1 INDICATES THE FIRST INNER ITERATION):

    HEAD CHANGE    HEAD CHANGE    HEAD CHANGE    HEAD CHANGE    HEAD CHANGE 
   LAYER,ROW,COL  LAYER,ROW,COL  LAYER,ROW,COL  LAYER,ROW,COL  LAYER,ROW,COL
 ---------------------------------------------------------------------------
  1  0.1342E-01  0 -0.3880E-02  0 -0.2704E-02  0 -0.9287E-02  0  0.9106E-02
   ( 15,  1, 86)  ( 17,  1, 89)  (  7,  1, 12)  (  8,  1, 47)  (  7,  1, 47)
  0 -0.1004E-02  0 -0.1099E-02  0 -0.5475E-03  1  0.6042E-03
   ( 11,  1, 68)  ( 11,  1, 52)  ( 11,  1, 64)  ( 11,  1, 70)

 MAXIMUM RESIDUAL FOR EACH ITERATION (1 INDICATES THE FIRST INNER ITERATION):

    RESIDUAL       RESIDUAL       RESIDUAL       RESIDUAL       RESIDUAL    
   LAYER,ROW,COL  LAYER,ROW,COL  LAYER,ROW,COL  LAYER,ROW,COL  LAYER,ROW,COL
 ---------------------------------------------------------------------------
  1  0.1365E+06  0 -0.9635E+05  0 -0.9518E+05  0 -0.4118E+05  0  -6224.    
   ( 21,  1, 89)  ( 19,  1, 89)  ( 19,  1, 89)  ( 19,  1, 89)  ( 17,  1, 87)
  0   2873.      0   2264.      0   799.3      1   664.3    
   ( 22,  1, 87)  ( 22,  1, 87)  ( 22,  1, 87)  ( 22,  1, 87)


 FLOW MODEL IS TRANSIENT
 FLOW MODEL CONTAINS CONSTANT-HEAD CELLS


 MAXIMUM STEPSIZE DURING WHICH ANY PARTICLE CANNOT MOVE MORE THAN ONE CELL
 =  12.83    (WHEN MIN. R.F.=1)  AT K=  17, I=   1, J=  90

 MAXIMUM STEPSIZE WHICH MEETS STABILITY CRITERION OF THE ADVECTION TERM
 (FOR PURE FINITE-DIFFERENCE OPTION, MIXELM=0) 
 =  8.021    (WHEN MIN. R.F.=1)  AT K=  16, I=   1, J=  90


 TOTAL NUMBER OF POINT SOURCES/SINKS PRESENT IN THE FLOW MODEL =    30

 MAXIMUM STEPSIZE WHICH MEETS STABILITY CRITERION OF THE SINK & SOURCE TERM
 =  12.17    (WHEN MIN. R.F.=1)  AT K=  17, I=   1, J=  91

 MAXIMUM STEPSIZE WHICH MEETS STABILITY CRITERION OF THE DISPERSION TERM
 =  4.020    (WHEN MIN. R.F.=1)  AT K=  17, I=   1, J=  90
     1 CALLS TO GCG PACKAGE FOR TRANSPORT TIME STEP  25 IN FLOW TIME STEP   1 STRESS PERIOD   1
     8 TOTAL ITERATIONS
  MAXIMUM CONCENTRATION CHANGES FOR EACH ITERATION:
  MAX. CHANGE LAYER,ROW,COL MAX. CHANGE LAYER,ROW,COL MAX. CHANGE LAYER,ROW,COL MAX. CHANGE LAYER,ROW,COL MAX. CHANGE LAYER,ROW,COL
 ------------------------------------------------------------------------------------------------------------------------------------
   0.5291E-01 ( 20,  1, 87)  0.4304E-02 ( 19,  1, 89)  0.2175E-02 ( 17,  1, 86)  0.4889E-03 ( 20,  1, 89)  0.9749E-04 ( 16,  1, 89)
   0.2055E-04 ( 20,  1, 89)  0.2036E-04 ( 16,  1, 90)  0.7612E-06 ( 17,  1, 90)
     1 CALLS TO GCG PACKAGE FOR TRANSPORT TIME STEP  25 IN FLOW TIME STEP   1 STRESS PERIOD   1
    10 TOTAL ITERATIONS
  MAXIMUM CONCENTRATION CHANGES FOR EACH ITERATION:
  MAX. CHANGE LAYER,ROW,COL MAX. CHANGE LAYER,ROW,COL MAX. CHANGE LAYER,ROW,COL MAX. CHANGE LAYER,ROW,COL MAX. CHANGE LAYER,ROW,COL
 ------------------------------------------------------------------------------------------------------------------------------------
   0.8291E-01 ( 19,  1, 89)  0.1703E-01 ( 20,  1, 87)  0.5770E-02 ( 17,  1, 85)  0.1145E-02 ( 17,  1, 90)  0.3191E-03 ( 17,  1, 90)
   0.1245E-03 ( 17,  1, 90)  0.6763E-04 ( 17,  1, 90)  0.5713E-05 ( 17,  1, 90)  0.7784E-05 ( 16,  1, 89)  0.5603E-06 ( 16,  1, 89)
 
 SOLVING FOR HEAD 


     2 CALLS TO PCG ROUTINE FOR TIME STEP   1 IN STRESS PERIOD    1
     8 TOTAL ITERATIONS

 MAXIMUM HEAD CHANGE FOR EACH ITERATION (1 INDICATES THE FIRST INNER ITERATION):

    HEAD CHANGE    HEAD CHANGE    HEAD CHANGE    HEAD CHANGE    HEAD CHANGE 
   LAYER,ROW,COL  LAYER,ROW,COL  LAYER,ROW,COL  LAYER,ROW,COL  LAYER,ROW,COL
 ---------------------------------------------------------------------------
  1 -0.1355E-01  0  0.3799E-02  0  0.2424E-02  0  0.1193E-01  0 -0.1236E-01
   ( 15,  1, 86)  ( 17,  1, 89)  (  8,  1, 12)  ( 11,  1, 52)  ( 11,  1, 52)
  0 -0.1633E-02  0  0.9479E-03  1  0.6480E-03
   ( 11,  1, 70)  ( 11,  1, 69)  ( 11,  1, 35)

 MAXIMUM RESIDUAL FOR EACH ITERATION (1 INDICATES THE FIRST INNER ITERATION):

    RESIDUAL       RESIDUAL       RESIDUAL       RESIDUAL       RESIDUAL    
   LAYER,ROW,COL  LAYER,ROW,COL  LAYER,ROW,COL  LAYER,ROW,COL  LAYER,ROW,COL
 ---------------------------------------------------------------------------
  1 -0.1355E+06  0  0.9537E+05  0  0.9388E+05  0  0.3036E+05  0   5603.    
   ( 21,  1, 89)  ( 19,  1, 89)  ( 19,  1, 89)  ( 19,  1, 89)  ( 17,  1, 87)
  0  -2822.      0  -2365.      1  -2043.    
   ( 22,  1, 87)  ( 22,  1, 87)  ( 22,  1, 87)


 FLOW MODEL IS TRANSIENT
 FLOW MODEL CONTAINS CONSTANT-HEAD CELLS


 MAXIMUM STEPSIZE DURING WHICH ANY PARTICLE CANNOT MOVE MORE THAN ONE CELL
 =  13.22    (WHEN MIN. R.F.=1)  AT K=  17, I=   1, J=  90

 MAXIMUM STEPSIZE WHICH MEETS STABILITY CRITERION OF THE ADVECTION TERM
 (FOR PURE FINITE-DIFFERENCE OPTION, MIXELM=0) 
 =  7.997    (WHEN MIN. R.F.=1)  AT K=  16, I=   1, J=  90


 TOTAL NUMBER OF POINT SOURCES/SINKS PRESENT IN THE FLOW MODEL =    30

 MAXIMUM STEPSIZE WHICH MEETS STABILITY CRITERION OF THE SINK & SOURCE TERM
 =  12.15    (WHEN MIN. R.F.=1)  AT K=  17, I=   1, J=  91

 MAXIMUM STEPSIZE WHICH MEETS STABILITY CRITERION OF THE DISPERSION TERM
 =  4.372    (WHEN MIN. R.F.=1)  AT K=  17, I=   1, J=  90
     1 CALLS TO GCG PACKAGE FOR TRANSPORT TIME STEP  26 IN FLOW TIME STEP   1 STRESS PERIOD   1
    10 TOTAL ITERATIONS
     1 CALLS TO GCG PACKAGE FOR TRANSPORT TIME STEP  26 IN FLOW TIME STEP   1 STRESS PERIOD   1
    10 TOTAL ITERATIONS
 
 SOLVING FOR HEAD 


     2 CALLS TO PCG ROUTINE FOR TIME STEP   1 IN STRESS PERIOD    1
     8 TOTAL ITERATIONS

 MAXIMUM HEAD CHANGE FOR EACH ITERATION (1 INDICATES THE FIRST INNER ITERATION):

    HEAD CHANGE    HEAD CHANGE    HEAD CHANGE    HEAD CHANGE    HEAD CHANGE 
   LAYER,ROW,COL  LAYER,ROW,COL  LAYER,ROW,COL  LAYER,ROW,COL  LAYER,ROW,COL
 ---------------------------------------------------------------------------
  1  0.1395E-01  0  0.5066E-02  0 -0.5192E-02  0 -0.1039E-01  0 -0.7917E-02
   ( 15,  1, 86)  (  8,  1, 12)  (  8,  1, 12)  ( 11,  1, 35)  (  8,  1, 46)
  0 -0.1783E-02  0 -0.8909E-03  1 -0.6369E-03
   ( 11,  1, 69)  ( 11,  1, 35)  ( 11,  1, 49)

 MAXIMUM RESIDUAL FOR EACH ITERATION (1 INDICATES THE FIRST INNER ITERATION):

    RESIDUAL       RESIDUAL       RESIDUAL       RESIDUAL       RESIDUAL    
   LAYER,ROW,COL  LAYER,ROW,COL  LAYER,ROW,COL  LAYER,ROW,COL  LAYER,ROW,COL
 ---------------------------------------------------------------------------
  1  0.1348E+06  0 -0.9492E+05  0 -0.9438E+05  0 -0.6398E+05  0  -6004.    
   ( 21,  1, 89)  ( 19,  1, 89)  ( 19,  1, 89)  ( 19,  1, 89)  ( 17,  1, 87)
  0   2803.      0   2626.      1   1668.    
   ( 22,  1, 87)  ( 22,  1, 87)  ( 22,  1, 87)


 FLOW MODEL IS TRANSIENT
 FLOW MODEL CONTAINS CONSTANT-HEAD CELLS


 MAXIMUM STEPSIZE DURING WHICH ANY PARTICLE CANNOT MOVE MORE THAN ONE CELL
 =  12.89    (WHEN MIN. R.F.=1)  AT K=  17, I=   1, J=  90

 MAXIMUM STEPSIZE WHICH MEETS STABILITY CRITERION OF THE ADVECTION TERM
 (FOR PURE FINITE-DIFFERENCE OPTION, MIXELM=0) 
 =  8.045    (WHEN MIN. R.F.=1)  AT K=  16, I=   1, J=  90


 TOTAL NUMBER OF POINT SOURCES/SINKS PRESENT IN THE FLOW MODEL =    30

 MAXIMUM STEPSIZE WHICH MEETS STABILITY CRITERION OF THE SINK & SOURCE TERM
 =  12.26    (WHEN MIN. R.F.=1)  AT K=  17, I=   1, J=  91

 MAXIMUM STEPSIZE WHICH MEETS STABILITY CRITERION OF THE DISPERSION TERM
 =  4.044    (WHEN MIN. R.F.=1)  AT K=  17, I=   1, J=  90
     1 CALLS TO GCG PACKAGE FOR TRANSPORT TIME STEP  27 IN FLOW TIME STEP   1 STRESS PERIOD   1
     8 TOTAL ITERATIONS
     1 CALLS TO GCG PACKAGE FOR TRANSPORT TIME STEP  27 IN FLOW TIME STEP   1 STRESS PERIOD   1
    10 TOTAL ITERATIONS
 
 SOLVING FOR HEAD 


     2 CALLS TO PCG ROUTINE FOR TIME STEP   1 IN STRESS PERIOD    1
     9 TOTAL ITERATIONS

 MAXIMUM HEAD CHANGE FOR EACH ITERATION (1 INDICATES THE FIRST INNER ITERATION):

    HEAD CHANGE    HEAD CHANGE    HEAD CHANGE    HEAD CHANGE    HEAD CHANGE 
   LAYER,ROW,COL  LAYER,ROW,COL  LAYER,ROW,COL  LAYER,ROW,COL  LAYER,ROW,COL
 ---------------------------------------------------------------------------
  1 -0.1379E-01  0 -0.9142E-02  0  0.4350E-02  0  0.1502E-01  0 -0.1276E-01
   ( 15,  1, 86)  ( 11,  1, 49)  (  8,  1, 12)  ( 11,  1, 49)  ( 11,  1, 49)
  0  0.2775E-02  0 -0.1175E-02  0  0.4398E-03  1  0.3952E-03
   ( 11,  1, 51)  ( 11,  1, 36)  ( 11,  1, 43)  (  7,  1, 30)

 MAXIMUM RESIDUAL FOR EACH ITERATION (1 INDICATES THE FIRST INNER ITERATION):

    RESIDUAL       RESIDUAL       RESIDUAL       RESIDUAL       RESIDUAL    
   LAYER,ROW,COL  LAYER,ROW,COL  LAYER,ROW,COL  LAYER,ROW,COL  LAYER,ROW,COL
 ---------------------------------------------------------------------------
  1 -0.1392E+06  0  0.9917E+05  0  0.9841E+05  0  0.7305E+05  0  -5945.    
   ( 21,  1, 89)  ( 19,  1, 89)  ( 19,  1, 89)  ( 19,  1, 89)  ( 17,  1, 88)
  0  -3004.      0  -2580.      0  -1774.      1  -1564.    
   ( 17,  1, 88)  ( 22,  1, 87)  ( 22,  1, 87)  ( 22,  1, 87)


 FLOW MODEL IS TRANSIENT
 FLOW MODEL CONTAINS CONSTANT-HEAD CELLS


 MAXIMUM STEPSIZE DURING WHICH ANY PARTICLE CANNOT MOVE MORE THAN ONE CELL
 =  13.20    (WHEN MIN. R.F.=1)  AT K=  17, I=   1, J=  90

 MAXIMUM STEPSIZE WHICH MEETS STABILITY CRITERION OF THE ADVECTION TERM
 (FOR PURE FINITE-DIFFERENCE OPTION, MIXELM=0) 
 =  7.985    (WHEN MIN. R.F.=1)  AT K=  16, I=   1, J=  90


 TOTAL NUMBER OF POINT SOURCES/SINKS PRESENT IN THE FLOW MODEL =    30

 MAXIMUM STEPSIZE WHICH MEETS STABILITY CRITERION OF THE SINK & SOURCE TERM
 =  12.15    (WHEN MIN. R.F.=1)  AT K=  17, I=   1, J=  91

 MAXIMUM STEPSIZE WHICH MEETS STABILITY CRITERION OF THE DISPERSION TERM
 =  4.369    (WHEN MIN. R.F.=1)  AT K=  17, I=   1, J=  90
     1 CALLS TO GCG PACKAGE FOR TRANSPORT TIME STEP  28 IN FLOW TIME STEP   1 STRESS PERIOD   1
     9 TOTAL ITERATIONS
     1 CALLS TO GCG PACKAGE FOR TRANSPORT TIME STEP  28 IN FLOW TIME STEP   1 STRESS PERIOD   1
    10 TOTAL ITERATIONS
 
 SOLVING FOR HEAD 


     2 CALLS TO PCG ROUTINE FOR TIME STEP   1 IN STRESS PERIOD    1
     9 TOTAL ITERATIONS

 MAXIMUM HEAD CHANGE FOR EACH ITERATION (1 INDICATES THE FIRST INNER ITERATION):

    HEAD CHANGE    HEAD CHANGE    HEAD CHANGE    HEAD CHANGE    HEAD CHANGE 
   LAYER,ROW,COL  LAYER,ROW,COL  LAYER,ROW,COL  LAYER,ROW,COL  LAYER,ROW,COL
 ---------------------------------------------------------------------------
  1  0.1374E-01  0 -0.4177E-02  0 -0.4451E-02  0 -0.9550E-02  0  0.9318E-02
   ( 15,  1, 86)  ( 17,  1, 89)  (  8,  1, 12)  (  9,  1, 46)  (  9,  1, 46)
  0 -0.1976E-02  0 -0.1240E-02  0 -0.5334E-03  1  0.3799E-03
   ( 11,  1, 68)  ( 11,  1, 51)  ( 11,  1, 64)  ( 11,  1, 35)

 MAXIMUM RESIDUAL FOR EACH ITERATION (1 INDICATES THE FIRST INNER ITERATION):

    RESIDUAL       RESIDUAL       RESIDUAL       RESIDUAL       RESIDUAL    
   LAYER,ROW,COL  LAYER,ROW,COL  LAYER,ROW,COL  LAYER,ROW,COL  LAYER,ROW,COL
 ---------------------------------------------------------------------------
  1  0.1382E+06  0 -0.9865E+05  0 -0.9793E+05  0 -0.4265E+05  0   5967.    
   ( 21,  1, 89)  ( 19,  1, 89)  ( 19,  1, 89)  ( 19,  1, 89)  ( 17,  1, 88)
  0   2744.      0   2524.      0   957.7      1   843.9    
   ( 22,  1, 87)  ( 22,  1, 87)  ( 22,  1, 87)  ( 22,  1, 87)


 FLOW MODEL IS TRANSIENT
 FLOW MODEL CONTAINS CONSTANT-HEAD CELLS


 MAXIMUM STEPSIZE DURING WHICH ANY PARTICLE CANNOT MOVE MORE THAN ONE CELL
 =  12.84    (WHEN MIN. R.F.=1)  AT K=  17, I=   1, J=  90

 MAXIMUM STEPSIZE WHICH MEETS STABILITY CRITERION OF THE ADVECTION TERM
 (FOR PURE FINITE-DIFFERENCE OPTION, MIXELM=0) 
 =  8.028    (WHEN MIN. R.F.=1)  AT K=  16, I=   1, J=  90


 TOTAL NUMBER OF POINT SOURCES/SINKS PRESENT IN THE FLOW MODEL =    30

 MAXIMUM STEPSIZE WHICH MEETS STABILITY CRITERION OF THE SINK & SOURCE TERM
 =  12.20    (WHEN MIN. R.F.=1)  AT K=  17, I=   1, J=  91

 MAXIMUM STEPSIZE WHICH MEETS STABILITY CRITERION OF THE DISPERSION TERM
 =  4.019    (WHEN MIN. R.F.=1)  AT K=  17, I=   1, J=  90
     1 CALLS TO GCG PACKAGE FOR TRANSPORT TIME STEP  29 IN FLOW TIME STEP   1 STRESS PERIOD   1
     8 TOTAL ITERATIONS
     1 CALLS TO GCG PACKAGE FOR TRANSPORT TIME STEP  29 IN FLOW TIME STEP   1 STRESS PERIOD   1
    10 TOTAL ITERATIONS
 
 SOLVING FOR HEAD 


     2 CALLS TO PCG ROUTINE FOR TIME STEP   1 IN STRESS PERIOD    1
     8 TOTAL ITERATIONS

 MAXIMUM HEAD CHANGE FOR EACH ITERATION (1 INDICATES THE FIRST INNER ITERATION):

    HEAD CHANGE    HEAD CHANGE    HEAD CHANGE    HEAD CHANGE    HEAD CHANGE 
   LAYER,ROW,COL  LAYER,ROW,COL  LAYER,ROW,COL  LAYER,ROW,COL  LAYER,ROW,COL
 ---------------------------------------------------------------------------
  1 -0.1356E-01  0  0.4009E-02  0  0.2856E-02  0  0.9505E-02  0 -0.1069E-01
   ( 15,  1, 86)  ( 17,  1, 89)  (  8,  1, 12)  ( 11,  1, 51)  ( 11,  1, 51)
  0  0.1948E-02  0  0.9019E-03  1  0.6877E-03
   ( 11,  1, 51)  ( 11,  1, 70)  ( 11,  1, 35)

 MAXIMUM RESIDUAL FOR EACH ITERATION (1 INDICATES THE FIRST INNER ITERATION):

    RESIDUAL       RESIDUAL       RESIDUAL       RESIDUAL       RESIDUAL    
   LAYER,ROW,COL  LAYER,ROW,COL  LAYER,ROW,COL  LAYER,ROW,COL  LAYER,ROW,COL
 ---------------------------------------------------------------------------
  1 -0.1347E+06  0  0.9508E+05  0  0.9402E+05  0  0.2468E+05  0   5372.    
   ( 21,  1, 89)  ( 19,  1, 89)  ( 19,  1, 89)  ( 19,  1, 89)  ( 17,  1, 87)
  0  -2847.      0  -2464.      1  -2088.    
   ( 22,  1, 87)  ( 22,  1, 87)  ( 22,  1, 87)


 FLOW MODEL IS TRANSIENT
 FLOW MODEL CONTAINS CONSTANT-HEAD CELLS


 MAXIMUM STEPSIZE DURING WHICH ANY PARTICLE CANNOT MOVE MORE THAN ONE CELL
 =  13.23    (WHEN MIN. R.F.=1)  AT K=  17, I=   1, J=  90

 MAXIMUM STEPSIZE WHICH MEETS STABILITY CRITERION OF THE ADVECTION TERM
 (FOR PURE FINITE-DIFFERENCE OPTION, MIXELM=0) 
 =  8.001    (WHEN MIN. R.F.=1)  AT K=  16, I=   1, J=  90


 TOTAL NUMBER OF POINT SOURCES/SINKS PRESENT IN THE FLOW MODEL =    30

 MAXIMUM STEPSIZE WHICH MEETS STABILITY CRITERION OF THE SINK & SOURCE TERM
 =  12.17    (WHEN MIN. R.F.=1)  AT K=  17, I=   1, J=  91

 MAXIMUM STEPSIZE WHICH MEETS STABILITY CRITERION OF THE DISPERSION TERM
 =  4.381    (WHEN MIN. R.F.=1)  AT K=  17, I=   1, J=  90
     1 CALLS TO GCG PACKAGE FOR TRANSPORT TIME STEP  30 IN FLOW TIME STEP   1 STRESS PERIOD   1
    10 TOTAL ITERATIONS
  MAXIMUM CONCENTRATION CHANGES FOR EACH ITERATION:
  MAX. CHANGE LAYER,ROW,COL MAX. CHANGE LAYER,ROW,COL MAX. CHANGE LAYER,ROW,COL MAX. CHANGE LAYER,ROW,COL MAX. CHANGE LAYER,ROW,COL
 ------------------------------------------------------------------------------------------------------------------------------------
   0.4898E-01 ( 20,  1, 87)  0.3360E-02 ( 19,  1, 87)  0.2248E-02 ( 18,  1, 87)  0.2217E-03 ( 16,  1, 88)  0.1489E-03 ( 16,  1, 89)
   0.2914E-04 ( 16,  1, 90)  0.2994E-05 ( 21,  1, 78)  0.1263E-05 ( 15,  1, 89)  0.3825E-05 ( 16,  1, 89)  0.9890E-07 ( 17,  1, 89)
     1 CALLS TO GCG PACKAGE FOR TRANSPORT TIME STEP  30 IN FLOW TIME STEP   1 STRESS PERIOD   1
    10 TOTAL ITERATIONS
  MAXIMUM CONCENTRATION CHANGES FOR EACH ITERATION:
  MAX. CHANGE LAYER,ROW,COL MAX. CHANGE LAYER,ROW,COL MAX. CHANGE LAYER,ROW,COL MAX. CHANGE LAYER,ROW,COL MAX. CHANGE LAYER,ROW,COL
 ------------------------------------------------------------------------------------------------------------------------------------
   0.7014E-01 ( 20,  1, 88)  0.1359E-01 ( 20,  1, 86)  0.4424E-02 ( 17,  1, 86)  0.8284E-03 ( 17,  1, 89)  0.1771E-03 ( 16,  1, 89)
   0.8543E-04 ( 17,  1, 90)  0.9349E-04 ( 17,  1, 90)  0.5113E-04 ( 17,  1, 90)  0.2922E-05 ( 17,  1, 88)  0.1282E-06 ( 16,  1, 89)



 >>>>>>>>>>>>>>>>>>>>>>>>>>>>>>>>>>>>>>>>>>>>>>>>>>>>>>>FOR COMPONENT NO. 01<<<<<<<<<<<<<<<<<<<<<<<<<<<<<<<<<<<<<<<<<<<<<<<<<<<<<<<


                                            -------------------------------------------
                                                      TRANSPORT STEP NO.   30
                                            -------------------------------------------

 TOTAL ELAPSED TIME SINCE BEGINNING OF SIMULATION =   1500.000    D   
 .....................................................................

                     CUMMULATIVE MASS BUDGETS AT END OF TRANSPORT STEP   30, TIME STEP    1, STRESS PERIOD    1
                     ------------------------------------------------------------------------------------------

                                                             IN                           OUT
                                                      ----------------             ----------------
                               CONSTANT CONCENTRATION:    0.000000                    0.000000    
                                        CONSTANT HEAD:   0.5949856E+08              -0.5941848E+08
                                                WELLS:    0.000000                    0.000000    
                                             RECHARGE:    0.000000                    0.000000    
                               1ST/0TH ORDER REACTION:    0.000000                    0.000000    
                                MASS STORAGE (SOLUTE):    8352768.                   -8432850.    
                            ---------------------------------------------------------------------------
                                              [TOTAL]:   0.6785141E+08 KG           -0.6785141E+08 KG  

                                                          NET (IN - OUT):    5.351459    
                                                   DISCREPANCY (PERCENT):   0.7887027E-05



 >>>>>>>>>>>>>>>>>>>>>>>>>>>>>>>>>>>>>>>>>>>>>>>>>>>>>>>FOR COMPONENT NO. 02<<<<<<<<<<<<<<<<<<<<<<<<<<<<<<<<<<<<<<<<<<<<<<<<<<<<<<<


                                            -------------------------------------------
                                                      TRANSPORT STEP NO.   30
                                            -------------------------------------------

 TOTAL ELAPSED TIME SINCE BEGINNING OF SIMULATION =   1500.000    D   
 .....................................................................

                     CUMMULATIVE MASS BUDGETS AT END OF TRANSPORT STEP   30, TIME STEP    1, STRESS PERIOD    1
                     ------------------------------------------------------------------------------------------

                                                             IN                           OUT
                                                      ----------------             ----------------
                               CONSTANT CONCENTRATION:    0.000000                    0.000000    
                                        CONSTANT HEAD:    0.000000                  -0.1131081E+10
                                                WELLS:    0.000000                    0.000000    
                                             RECHARGE:    0.000000                    0.000000    
                               1ST/0TH ORDER REACTION:   0.2482500E+11                0.000000    
                                MASS STORAGE (SOLUTE):   0.3273783E+08              -0.2372666E+11
                            ---------------------------------------------------------------------------
                                              [TOTAL]:   0.2485774E+11 KG           -0.2485774E+11 KG  

                                                          NET (IN - OUT):   -67.57984    
                                                   DISCREPANCY (PERCENT):  -0.2718664E-06
 
 SOLVING FOR HEAD 


     2 CALLS TO PCG ROUTINE FOR TIME STEP   1 IN STRESS PERIOD    1
     8 TOTAL ITERATIONS

 MAXIMUM HEAD CHANGE FOR EACH ITERATION (1 INDICATES THE FIRST INNER ITERATION):

    HEAD CHANGE    HEAD CHANGE    HEAD CHANGE    HEAD CHANGE    HEAD CHANGE 
   LAYER,ROW,COL  LAYER,ROW,COL  LAYER,ROW,COL  LAYER,ROW,COL  LAYER,ROW,COL
 ---------------------------------------------------------------------------
  1  0.1382E-01  0  0.5822E-02  0 -0.5018E-02  0 -0.1066E-01  0 -0.7489E-02
   ( 15,  1, 86)  ( 11,  1, 35)  (  8,  1, 12)  ( 11,  1, 36)  (  9,  1, 46)
  0 -0.2558E-02  0 -0.9451E-03  1 -0.8007E-03
   ( 11,  1, 45)  ( 11,  1, 61)  ( 11,  1, 49)

 MAXIMUM RESIDUAL FOR EACH ITERATION (1 INDICATES THE FIRST INNER ITERATION):

    RESIDUAL       RESIDUAL       RESIDUAL       RESIDUAL       RESIDUAL    
   LAYER,ROW,COL  LAYER,ROW,COL  LAYER,ROW,COL  LAYER,ROW,COL  LAYER,ROW,COL
 ---------------------------------------------------------------------------
  1  0.1368E+06  0 -0.9676E+05  0 -0.9615E+05  0 -0.7050E+05  0  -6133.    
   ( 21,  1, 89)  ( 19,  1, 89)  ( 19,  1, 89)  ( 19,  1, 89)  ( 17,  1, 87)
  0   2925.      0   2589.      1   1589.    
   ( 17,  1, 88)  ( 22,  1, 87)  ( 22,  1, 87)


 FLOW MODEL IS TRANSIENT
 FLOW MODEL CONTAINS CONSTANT-HEAD CELLS


 MAXIMUM STEPSIZE DURING WHICH ANY PARTICLE CANNOT MOVE MORE THAN ONE CELL
 =  12.88    (WHEN MIN. R.F.=1)  AT K=  17, I=   1, J=  90

 MAXIMUM STEPSIZE WHICH MEETS STABILITY CRITERION OF THE ADVECTION TERM
 (FOR PURE FINITE-DIFFERENCE OPTION, MIXELM=0) 
 =  8.047    (WHEN MIN. R.F.=1)  AT K=  16, I=   1, J=  90


 TOTAL NUMBER OF POINT SOURCES/SINKS PRESENT IN THE FLOW MODEL =    30

 MAXIMUM STEPSIZE WHICH MEETS STABILITY CRITERION OF THE SINK & SOURCE TERM
 =  12.26    (WHEN MIN. R.F.=1)  AT K=  17, I=   1, J=  91

 MAXIMUM STEPSIZE WHICH MEETS STABILITY CRITERION OF THE DISPERSION TERM
 =  4.040    (WHEN MIN. R.F.=1)  AT K=  17, I=   1, J=  90
     1 CALLS TO GCG PACKAGE FOR TRANSPORT TIME STEP  31 IN FLOW TIME STEP   1 STRESS PERIOD   1
     8 TOTAL ITERATIONS
     1 CALLS TO GCG PACKAGE FOR TRANSPORT TIME STEP  31 IN FLOW TIME STEP   1 STRESS PERIOD   1
    10 TOTAL ITERATIONS
 
 SOLVING FOR HEAD 


     2 CALLS TO PCG ROUTINE FOR TIME STEP   1 IN STRESS PERIOD    1
     9 TOTAL ITERATIONS

 MAXIMUM HEAD CHANGE FOR EACH ITERATION (1 INDICATES THE FIRST INNER ITERATION):

    HEAD CHANGE    HEAD CHANGE    HEAD CHANGE    HEAD CHANGE    HEAD CHANGE 
   LAYER,ROW,COL  LAYER,ROW,COL  LAYER,ROW,COL  LAYER,ROW,COL  LAYER,ROW,COL
 ---------------------------------------------------------------------------
  1 -0.1382E-01  0 -0.1143E-01  0  0.6954E-02  0  0.1660E-01  0 -0.1249E-01
   ( 15,  1, 86)  ( 11,  1, 49)  (  8,  1, 12)  ( 11,  1, 49)  ( 11,  1, 49)
  0  0.2533E-02  0  0.1265E-02  0  0.9355E-03  1 -0.6989E-03
   ( 11,  1, 54)  ( 11,  1, 69)  ( 11,  1, 70)  ( 11,  1, 70)

 MAXIMUM RESIDUAL FOR EACH ITERATION (1 INDICATES THE FIRST INNER ITERATION):

    RESIDUAL       RESIDUAL       RESIDUAL       RESIDUAL       RESIDUAL    
   LAYER,ROW,COL  LAYER,ROW,COL  LAYER,ROW,COL  LAYER,ROW,COL  LAYER,ROW,COL
 ---------------------------------------------------------------------------
  1 -0.1395E+06  0  0.9874E+05  0  0.9857E+05  0  0.7578E+05  0  -5968.    
   ( 21,  1, 89)  ( 19,  1, 89)  ( 19,  1, 89)  ( 19,  1, 89)  ( 17,  1, 88)
  0  -3004.      0  -2574.      0  -1434.      1  -1266.    
   ( 17,  1, 88)  ( 22,  1, 87)  ( 22,  1, 87)  ( 22,  1, 87)


 FLOW MODEL IS TRANSIENT
 FLOW MODEL CONTAINS CONSTANT-HEAD CELLS


 MAXIMUM STEPSIZE DURING WHICH ANY PARTICLE CANNOT MOVE MORE THAN ONE CELL
 =  13.21    (WHEN MIN. R.F.=1)  AT K=  17, I=   1, J=  90

 MAXIMUM STEPSIZE WHICH MEETS STABILITY CRITERION OF THE ADVECTION TERM
 (FOR PURE FINITE-DIFFERENCE OPTION, MIXELM=0) 
 =  7.988    (WHEN MIN. R.F.=1)  AT K=  16, I=   1, J=  90


 TOTAL NUMBER OF POINT SOURCES/SINKS PRESENT IN THE FLOW MODEL =    30

 MAXIMUM STEPSIZE WHICH MEETS STABILITY CRITERION OF THE SINK & SOURCE TERM
 =  12.15    (WHEN MIN. R.F.=1)  AT K=  17, I=   1, J=  91

 MAXIMUM STEPSIZE WHICH MEETS STABILITY CRITERION OF THE DISPERSION TERM
 =  4.374    (WHEN MIN. R.F.=1)  AT K=  17, I=   1, J=  90
     1 CALLS TO GCG PACKAGE FOR TRANSPORT TIME STEP  32 IN FLOW TIME STEP   1 STRESS PERIOD   1
     7 TOTAL ITERATIONS
     1 CALLS TO GCG PACKAGE FOR TRANSPORT TIME STEP  32 IN FLOW TIME STEP   1 STRESS PERIOD   1
    10 TOTAL ITERATIONS
 
 SOLVING FOR HEAD 


     2 CALLS TO PCG ROUTINE FOR TIME STEP   1 IN STRESS PERIOD    1
     9 TOTAL ITERATIONS

 MAXIMUM HEAD CHANGE FOR EACH ITERATION (1 INDICATES THE FIRST INNER ITERATION):

    HEAD CHANGE    HEAD CHANGE    HEAD CHANGE    HEAD CHANGE    HEAD CHANGE 
   LAYER,ROW,COL  LAYER,ROW,COL  LAYER,ROW,COL  LAYER,ROW,COL  LAYER,ROW,COL
 ---------------------------------------------------------------------------
  1  0.1363E-01  0 -0.4112E-02  0 -0.3667E-02  0 -0.8331E-02  0  0.8689E-02
   ( 15,  1, 86)  ( 17,  1, 89)  (  8,  1, 12)  (  9,  1, 47)  (  7,  1, 46)
  0 -0.2125E-02  0 -0.1268E-02  0 -0.8005E-03  1  0.5505E-03
   ( 11,  1, 68)  ( 11,  1, 54)  ( 11,  1, 65)  ( 11,  1, 65)

 MAXIMUM RESIDUAL FOR EACH ITERATION (1 INDICATES THE FIRST INNER ITERATION):

    RESIDUAL       RESIDUAL       RESIDUAL       RESIDUAL       RESIDUAL    
   LAYER,ROW,COL  LAYER,ROW,COL  LAYER,ROW,COL  LAYER,ROW,COL  LAYER,ROW,COL
 ---------------------------------------------------------------------------
  1  0.1378E+06  0 -0.9817E+05  0 -0.9730E+05  0 -0.3337E+05  0  -5803.    
   ( 21,  1, 89)  ( 19,  1, 89)  ( 19,  1, 89)  ( 19,  1, 89)  ( 17,  1, 87)
  0   2782.      0   2536.      0   971.2      1   850.4    
   ( 22,  1, 87)  ( 22,  1, 87)  ( 22,  1, 87)  ( 22,  1, 87)


 FLOW MODEL IS TRANSIENT
 FLOW MODEL CONTAINS CONSTANT-HEAD CELLS


 MAXIMUM STEPSIZE DURING WHICH ANY PARTICLE CANNOT MOVE MORE THAN ONE CELL
 =  12.83    (WHEN MIN. R.F.=1)  AT K=  17, I=   1, J=  90

 MAXIMUM STEPSIZE WHICH MEETS STABILITY CRITERION OF THE ADVECTION TERM
 (FOR PURE FINITE-DIFFERENCE OPTION, MIXELM=0) 
 =  8.027    (WHEN MIN. R.F.=1)  AT K=  16, I=   1, J=  90


 TOTAL NUMBER OF POINT SOURCES/SINKS PRESENT IN THE FLOW MODEL =    30

 MAXIMUM STEPSIZE WHICH MEETS STABILITY CRITERION OF THE SINK & SOURCE TERM
 =  12.19    (WHEN MIN. R.F.=1)  AT K=  17, I=   1, J=  91

 MAXIMUM STEPSIZE WHICH MEETS STABILITY CRITERION OF THE DISPERSION TERM
 =  4.019    (WHEN MIN. R.F.=1)  AT K=  17, I=   1, J=  90
     1 CALLS TO GCG PACKAGE FOR TRANSPORT TIME STEP  33 IN FLOW TIME STEP   1 STRESS PERIOD   1
     8 TOTAL ITERATIONS
     1 CALLS TO GCG PACKAGE FOR TRANSPORT TIME STEP  33 IN FLOW TIME STEP   1 STRESS PERIOD   1
    10 TOTAL ITERATIONS
 
 SOLVING FOR HEAD 


     2 CALLS TO PCG ROUTINE FOR TIME STEP   1 IN STRESS PERIOD    1
     8 TOTAL ITERATIONS

 MAXIMUM HEAD CHANGE FOR EACH ITERATION (1 INDICATES THE FIRST INNER ITERATION):

    HEAD CHANGE    HEAD CHANGE    HEAD CHANGE    HEAD CHANGE    HEAD CHANGE 
   LAYER,ROW,COL  LAYER,ROW,COL  LAYER,ROW,COL  LAYER,ROW,COL  LAYER,ROW,COL
 ---------------------------------------------------------------------------
  1 -0.1355E-01  0  0.3955E-02  0  0.2878E-02  0  0.1089E-01  0 -0.1134E-01
   ( 15,  1, 86)  ( 17,  1, 89)  (  8,  1, 12)  ( 11,  1, 49)  ( 11,  1, 49)
  0  0.1763E-02  0 -0.8525E-03  1  0.6700E-03
   ( 11,  1, 53)  ( 11,  1, 37)  ( 11,  1, 37)

 MAXIMUM RESIDUAL FOR EACH ITERATION (1 INDICATES THE FIRST INNER ITERATION):

    RESIDUAL       RESIDUAL       RESIDUAL       RESIDUAL       RESIDUAL    
   LAYER,ROW,COL  LAYER,ROW,COL  LAYER,ROW,COL  LAYER,ROW,COL  LAYER,ROW,COL
 ---------------------------------------------------------------------------
  1 -0.1351E+06  0  0.9538E+05  0  0.9432E+05  0  0.2702E+05  0   5540.    
   ( 21,  1, 89)  ( 19,  1, 89)  ( 19,  1, 89)  ( 19,  1, 89)  ( 17,  1, 87)
  0  -2821.      0  -2531.      1  -2043.    
   ( 22,  1, 87)  ( 22,  1, 87)  ( 22,  1, 87)


 FLOW MODEL IS TRANSIENT
 FLOW MODEL CONTAINS CONSTANT-HEAD CELLS


 MAXIMUM STEPSIZE DURING WHICH ANY PARTICLE CANNOT MOVE MORE THAN ONE CELL
 =  13.22    (WHEN MIN. R.F.=1)  AT K=  17, I=   1, J=  90

 MAXIMUM STEPSIZE WHICH MEETS STABILITY CRITERION OF THE ADVECTION TERM
 (FOR PURE FINITE-DIFFERENCE OPTION, MIXELM=0) 
 =  7.999    (WHEN MIN. R.F.=1)  AT K=  16, I=   1, J=  90


 TOTAL NUMBER OF POINT SOURCES/SINKS PRESENT IN THE FLOW MODEL =    30

 MAXIMUM STEPSIZE WHICH MEETS STABILITY CRITERION OF THE SINK & SOURCE TERM
 =  12.16    (WHEN MIN. R.F.=1)  AT K=  17, I=   1, J=  91

 MAXIMUM STEPSIZE WHICH MEETS STABILITY CRITERION OF THE DISPERSION TERM
 =  4.377    (WHEN MIN. R.F.=1)  AT K=  17, I=   1, J=  90
     1 CALLS TO GCG PACKAGE FOR TRANSPORT TIME STEP  34 IN FLOW TIME STEP   1 STRESS PERIOD   1
    10 TOTAL ITERATIONS
     1 CALLS TO GCG PACKAGE FOR TRANSPORT TIME STEP  34 IN FLOW TIME STEP   1 STRESS PERIOD   1
    10 TOTAL ITERATIONS
 
 SOLVING FOR HEAD 


     2 CALLS TO PCG ROUTINE FOR TIME STEP   1 IN STRESS PERIOD    1
    10 TOTAL ITERATIONS

 MAXIMUM HEAD CHANGE FOR EACH ITERATION (1 INDICATES THE FIRST INNER ITERATION):

    HEAD CHANGE    HEAD CHANGE    HEAD CHANGE    HEAD CHANGE    HEAD CHANGE 
   LAYER,ROW,COL  LAYER,ROW,COL  LAYER,ROW,COL  LAYER,ROW,COL  LAYER,ROW,COL
 ---------------------------------------------------------------------------
  1  0.1383E-01  0  0.7333E-02  0 -0.4887E-02  0 -0.1012E-01  0 -0.6873E-02
   ( 15,  1, 86)  ( 11,  1, 37)  (  8,  1, 12)  ( 11,  1, 37)  (  8,  1, 47)
  0 -0.4074E-02  0  0.1376E-02  0 -0.1028E-02  0  0.6590E-03  1  0.2194E-03
   ( 11,  1, 49)  ( 11,  1, 49)  ( 11,  1, 53)  ( 11,  1, 54)  ( 11,  1, 64)

 MAXIMUM RESIDUAL FOR EACH ITERATION (1 INDICATES THE FIRST INNER ITERATION):

    RESIDUAL       RESIDUAL       RESIDUAL       RESIDUAL       RESIDUAL    
   LAYER,ROW,COL  LAYER,ROW,COL  LAYER,ROW,COL  LAYER,ROW,COL  LAYER,ROW,COL
 ---------------------------------------------------------------------------
  1  0.1362E+06  0 -0.9608E+05  0 -0.9545E+05  0 -0.7670E+05  0  -6246.    
   ( 21,  1, 89)  ( 19,  1, 89)  ( 19,  1, 89)  ( 19,  1, 89)  ( 17,  1, 87)
  0   3031.      0   2610.      0   1552.      0   398.0      1   340.8    
   ( 17,  1, 88)  ( 22,  1, 87)  ( 22,  1, 87)  ( 22,  1, 87)  ( 22,  1, 87)


 FLOW MODEL IS TRANSIENT
 FLOW MODEL CONTAINS CONSTANT-HEAD CELLS


 MAXIMUM STEPSIZE DURING WHICH ANY PARTICLE CANNOT MOVE MORE THAN ONE CELL
 =  12.89    (WHEN MIN. R.F.=1)  AT K=  17, I=   1, J=  90

 MAXIMUM STEPSIZE WHICH MEETS STABILITY CRITERION OF THE ADVECTION TERM
 (FOR PURE FINITE-DIFFERENCE OPTION, MIXELM=0) 
 =  8.051    (WHEN MIN. R.F.=1)  AT K=  16, I=   1, J=  90


 TOTAL NUMBER OF POINT SOURCES/SINKS PRESENT IN THE FLOW MODEL =    30

 MAXIMUM STEPSIZE WHICH MEETS STABILITY CRITERION OF THE SINK & SOURCE TERM
 =  12.26    (WHEN MIN. R.F.=1)  AT K=  17, I=   1, J=  91

 MAXIMUM STEPSIZE WHICH MEETS STABILITY CRITERION OF THE DISPERSION TERM
 =  4.044    (WHEN MIN. R.F.=1)  AT K=  17, I=   1, J=  90
     1 CALLS TO GCG PACKAGE FOR TRANSPORT TIME STEP  35 IN FLOW TIME STEP   1 STRESS PERIOD   1
     8 TOTAL ITERATIONS
  MAXIMUM CONCENTRATION CHANGES FOR EACH ITERATION:
  MAX. CHANGE LAYER,ROW,COL MAX. CHANGE LAYER,ROW,COL MAX. CHANGE LAYER,ROW,COL MAX. CHANGE LAYER,ROW,COL MAX. CHANGE LAYER,ROW,COL
 ------------------------------------------------------------------------------------------------------------------------------------
   0.5242E-01 ( 20,  1, 87)  0.4333E-02 ( 19,  1, 89)  0.2099E-02 ( 17,  1, 86)  0.5089E-03 ( 20,  1, 89)  0.9681E-04 ( 16,  1, 89)
   0.2051E-04 ( 20,  1, 89)  0.2193E-04 ( 16,  1, 90)  0.7318E-06 ( 17,  1, 90)
     1 CALLS TO GCG PACKAGE FOR TRANSPORT TIME STEP  35 IN FLOW TIME STEP   1 STRESS PERIOD   1
    10 TOTAL ITERATIONS
  MAXIMUM CONCENTRATION CHANGES FOR EACH ITERATION:
  MAX. CHANGE LAYER,ROW,COL MAX. CHANGE LAYER,ROW,COL MAX. CHANGE LAYER,ROW,COL MAX. CHANGE LAYER,ROW,COL MAX. CHANGE LAYER,ROW,COL
 ------------------------------------------------------------------------------------------------------------------------------------
   0.8031E-01 ( 19,  1, 89)  0.1507E-01 ( 20,  1, 87)  0.3710E-02 ( 17,  1, 85)  0.7673E-03 ( 17,  1, 90)  0.1592E-03 ( 17,  1, 90)
   0.5966E-04 ( 17,  1, 90)  0.1949E-04 ( 17,  1, 90)  0.2490E-04 ( 17,  1, 90)  0.4641E-04 ( 17,  1, 90)  0.5454E-06 ( 17,  1, 90)
 
 SOLVING FOR HEAD 


     2 CALLS TO PCG ROUTINE FOR TIME STEP   1 IN STRESS PERIOD    1
     9 TOTAL ITERATIONS

 MAXIMUM HEAD CHANGE FOR EACH ITERATION (1 INDICATES THE FIRST INNER ITERATION):

    HEAD CHANGE    HEAD CHANGE    HEAD CHANGE    HEAD CHANGE    HEAD CHANGE 
   LAYER,ROW,COL  LAYER,ROW,COL  LAYER,ROW,COL  LAYER,ROW,COL  LAYER,ROW,COL
 ---------------------------------------------------------------------------
  1 -0.1363E-01  0  0.3971E-02  0  0.3576E-02  0  0.6366E-02  0 -0.8661E-02
   ( 15,  1, 86)  ( 17,  1, 89)  (  8,  1, 12)  ( 11,  1, 55)  ( 11,  1, 55)
  0  0.2599E-02  0  0.1245E-02  0  0.7114E-03  1 -0.4955E-03
   ( 11,  1, 55)  ( 11,  1, 68)  ( 11,  1, 49)  ( 11,  1, 61)

 MAXIMUM RESIDUAL FOR EACH ITERATION (1 INDICATES THE FIRST INNER ITERATION):

    RESIDUAL       RESIDUAL       RESIDUAL       RESIDUAL       RESIDUAL    
   LAYER,ROW,COL  LAYER,ROW,COL  LAYER,ROW,COL  LAYER,ROW,COL  LAYER,ROW,COL
 ---------------------------------------------------------------------------
  1 -0.1371E+06  0  0.9745E+05  0  0.9656E+05  0  0.1451E+05  0  -4280.    
   ( 21,  1, 89)  ( 19,  1, 89)  ( 19,  1, 89)  ( 19,  1, 89)  ( 17,  1, 88)
  0  -2818.      0  -2164.      0  -689.5      1  -574.4    
   ( 22,  1, 87)  ( 22,  1, 87)  ( 22,  1, 87)  ( 22,  1, 87)


 FLOW MODEL IS TRANSIENT
 FLOW MODEL CONTAINS CONSTANT-HEAD CELLS


 MAXIMUM STEPSIZE DURING WHICH ANY PARTICLE CANNOT MOVE MORE THAN ONE CELL
 =  13.24    (WHEN MIN. R.F.=1)  AT K=  17, I=   1, J=  90

 MAXIMUM STEPSIZE WHICH MEETS STABILITY CRITERION OF THE ADVECTION TERM
 (FOR PURE FINITE-DIFFERENCE OPTION, MIXELM=0) 
 =  8.007    (WHEN MIN. R.F.=1)  AT K=  16, I=   1, J=  90


 TOTAL NUMBER OF POINT SOURCES/SINKS PRESENT IN THE FLOW MODEL =    30

 MAXIMUM STEPSIZE WHICH MEETS STABILITY CRITERION OF THE SINK & SOURCE TERM
 =  12.19    (WHEN MIN. R.F.=1)  AT K=  17, I=   1, J=  91

 MAXIMUM STEPSIZE WHICH MEETS STABILITY CRITERION OF THE DISPERSION TERM
 =  4.387    (WHEN MIN. R.F.=1)  AT K=  17, I=   1, J=  90
     1 CALLS TO GCG PACKAGE FOR TRANSPORT TIME STEP  36 IN FLOW TIME STEP   1 STRESS PERIOD   1
     9 TOTAL ITERATIONS
     1 CALLS TO GCG PACKAGE FOR TRANSPORT TIME STEP  36 IN FLOW TIME STEP   1 STRESS PERIOD   1
    10 TOTAL ITERATIONS
 
 SOLVING FOR HEAD 


     2 CALLS TO PCG ROUTINE FOR TIME STEP   1 IN STRESS PERIOD    1
     9 TOTAL ITERATIONS

 MAXIMUM HEAD CHANGE FOR EACH ITERATION (1 INDICATES THE FIRST INNER ITERATION):

    HEAD CHANGE    HEAD CHANGE    HEAD CHANGE    HEAD CHANGE    HEAD CHANGE 
   LAYER,ROW,COL  LAYER,ROW,COL  LAYER,ROW,COL  LAYER,ROW,COL  LAYER,ROW,COL
 ---------------------------------------------------------------------------
  1  0.1335E-01  0 -0.3601E-02  0 -0.2351E-02  0  0.7921E-02  0 -0.8904E-02
   ( 15,  1, 86)  ( 17,  1, 89)  (  8,  1, 12)  ( 11,  1, 49)  ( 11,  1, 49)
  0  0.2066E-02  0 -0.1140E-02  0 -0.5816E-03  1  0.6037E-03
   ( 11,  1, 50)  ( 11,  1, 55)  ( 11,  1, 64)  ( 11,  1, 70)

 MAXIMUM RESIDUAL FOR EACH ITERATION (1 INDICATES THE FIRST INNER ITERATION):

    RESIDUAL       RESIDUAL       RESIDUAL       RESIDUAL       RESIDUAL    
   LAYER,ROW,COL  LAYER,ROW,COL  LAYER,ROW,COL  LAYER,ROW,COL  LAYER,ROW,COL
 ---------------------------------------------------------------------------
  1  0.1358E+06  0 -0.9507E+05  0 -0.9318E+05  0 -0.1764E+05  0  -4684.    
   ( 21,  1, 89)  ( 19,  1, 89)  ( 19,  1, 89)  ( 19,  1, 89)  ( 17,  1, 87)
  0   2907.      0   2406.      0   696.6      1   575.5    
   ( 22,  1, 87)  ( 22,  1, 87)  ( 22,  1, 87)  ( 22,  1, 87)


 FLOW MODEL IS TRANSIENT
 FLOW MODEL CONTAINS CONSTANT-HEAD CELLS


 MAXIMUM STEPSIZE DURING WHICH ANY PARTICLE CANNOT MOVE MORE THAN ONE CELL
 =  12.84    (WHEN MIN. R.F.=1)  AT K=  17, I=   1, J=  90

 MAXIMUM STEPSIZE WHICH MEETS STABILITY CRITERION OF THE ADVECTION TERM
 (FOR PURE FINITE-DIFFERENCE OPTION, MIXELM=0) 
 =  8.026    (WHEN MIN. R.F.=1)  AT K=  16, I=   1, J=  90


 TOTAL NUMBER OF POINT SOURCES/SINKS PRESENT IN THE FLOW MODEL =    30

 MAXIMUM STEPSIZE WHICH MEETS STABILITY CRITERION OF THE SINK & SOURCE TERM
 =  12.19    (WHEN MIN. R.F.=1)  AT K=  17, I=   1, J=  91

 MAXIMUM STEPSIZE WHICH MEETS STABILITY CRITERION OF THE DISPERSION TERM
 =  4.028    (WHEN MIN. R.F.=1)  AT K=  17, I=   1, J=  90
     1 CALLS TO GCG PACKAGE FOR TRANSPORT TIME STEP  37 IN FLOW TIME STEP   1 STRESS PERIOD   1
     8 TOTAL ITERATIONS
     1 CALLS TO GCG PACKAGE FOR TRANSPORT TIME STEP  37 IN FLOW TIME STEP   1 STRESS PERIOD   1
    10 TOTAL ITERATIONS
 
 SOLVING FOR HEAD 


     2 CALLS TO PCG ROUTINE FOR TIME STEP   1 IN STRESS PERIOD    1
     8 TOTAL ITERATIONS

 MAXIMUM HEAD CHANGE FOR EACH ITERATION (1 INDICATES THE FIRST INNER ITERATION):

    HEAD CHANGE    HEAD CHANGE    HEAD CHANGE    HEAD CHANGE    HEAD CHANGE 
   LAYER,ROW,COL  LAYER,ROW,COL  LAYER,ROW,COL  LAYER,ROW,COL  LAYER,ROW,COL
 ---------------------------------------------------------------------------
  1 -0.1353E-01  0  0.3729E-02  0  0.2381E-02  0  0.6362E-02  0 -0.7246E-02
   ( 15,  1, 86)  ( 17,  1, 89)  (  8,  1, 12)  (  8,  1, 39)  (  9,  1, 41)
  0 -0.1712E-02  0  0.8944E-03  1  0.5575E-03
   ( 11,  1, 39)  ( 11,  1, 58)  ( 11,  1, 63)

 MAXIMUM RESIDUAL FOR EACH ITERATION (1 INDICATES THE FIRST INNER ITERATION):

    RESIDUAL       RESIDUAL       RESIDUAL       RESIDUAL       RESIDUAL    
   LAYER,ROW,COL  LAYER,ROW,COL  LAYER,ROW,COL  LAYER,ROW,COL  LAYER,ROW,COL
 ---------------------------------------------------------------------------
  1 -0.1360E+06  0  0.9604E+05  0  0.9452E+05  0  0.2325E+05  0   5548.    
   ( 21,  1, 89)  ( 19,  1, 89)  ( 19,  1, 89)  ( 19,  1, 89)  ( 17,  1, 87)
  0  -2824.      0  -2497.      1  -2027.    
   ( 22,  1, 87)  ( 22,  1, 87)  ( 22,  1, 87)


 FLOW MODEL IS TRANSIENT
 FLOW MODEL CONTAINS CONSTANT-HEAD CELLS


 MAXIMUM STEPSIZE DURING WHICH ANY PARTICLE CANNOT MOVE MORE THAN ONE CELL
 =  13.21    (WHEN MIN. R.F.=1)  AT K=  17, I=   1, J=  90

 MAXIMUM STEPSIZE WHICH MEETS STABILITY CRITERION OF THE ADVECTION TERM
 (FOR PURE FINITE-DIFFERENCE OPTION, MIXELM=0) 
 =  7.999    (WHEN MIN. R.F.=1)  AT K=  16, I=   1, J=  90


 TOTAL NUMBER OF POINT SOURCES/SINKS PRESENT IN THE FLOW MODEL =    30

 MAXIMUM STEPSIZE WHICH MEETS STABILITY CRITERION OF THE SINK & SOURCE TERM
 =  12.16    (WHEN MIN. R.F.=1)  AT K=  17, I=   1, J=  91

 MAXIMUM STEPSIZE WHICH MEETS STABILITY CRITERION OF THE DISPERSION TERM
 =  4.365    (WHEN MIN. R.F.=1)  AT K=  17, I=   1, J=  90
     1 CALLS TO GCG PACKAGE FOR TRANSPORT TIME STEP  38 IN FLOW TIME STEP   1 STRESS PERIOD   1
     8 TOTAL ITERATIONS
     1 CALLS TO GCG PACKAGE FOR TRANSPORT TIME STEP  38 IN FLOW TIME STEP   1 STRESS PERIOD   1
    10 TOTAL ITERATIONS
 
 SOLVING FOR HEAD 


     2 CALLS TO PCG ROUTINE FOR TIME STEP   1 IN STRESS PERIOD    1
     8 TOTAL ITERATIONS

 MAXIMUM HEAD CHANGE FOR EACH ITERATION (1 INDICATES THE FIRST INNER ITERATION):

    HEAD CHANGE    HEAD CHANGE    HEAD CHANGE    HEAD CHANGE    HEAD CHANGE 
   LAYER,ROW,COL  LAYER,ROW,COL  LAYER,ROW,COL  LAYER,ROW,COL  LAYER,ROW,COL
 ---------------------------------------------------------------------------
  1  0.1388E-01  0 -0.6190E-02  0 -0.4575E-02  0  0.1062E-01  0  0.8646E-02
   ( 15,  1, 86)  ( 11,  1, 56)  (  8,  1, 12)  ( 11,  1, 55)  ( 11,  1, 66)
  0 -0.2842E-02  0  0.9783E-03  1 -0.5225E-03
   ( 11,  1, 68)  (  6,  1, 34)  ( 11,  1, 53)

 MAXIMUM RESIDUAL FOR EACH ITERATION (1 INDICATES THE FIRST INNER ITERATION):

    RESIDUAL       RESIDUAL       RESIDUAL       RESIDUAL       RESIDUAL    
   LAYER,ROW,COL  LAYER,ROW,COL  LAYER,ROW,COL  LAYER,ROW,COL  LAYER,ROW,COL
 ---------------------------------------------------------------------------
  1  0.1341E+06  0 -0.9463E+05  0 -0.9398E+05  0 -0.6873E+05  0  -6155.    
   ( 21,  1, 89)  ( 19,  1, 89)  ( 19,  1, 89)  ( 19,  1, 89)  ( 17,  1, 87)
  0   3018.      0   2649.      1   1962.    
   ( 17,  1, 88)  ( 22,  1, 87)  ( 22,  1, 87)


 FLOW MODEL IS TRANSIENT
 FLOW MODEL CONTAINS CONSTANT-HEAD CELLS


 MAXIMUM STEPSIZE DURING WHICH ANY PARTICLE CANNOT MOVE MORE THAN ONE CELL
 =  12.89    (WHEN MIN. R.F.=1)  AT K=  17, I=   1, J=  90

 MAXIMUM STEPSIZE WHICH MEETS STABILITY CRITERION OF THE ADVECTION TERM
 (FOR PURE FINITE-DIFFERENCE OPTION, MIXELM=0) 
 =  8.044    (WHEN MIN. R.F.=1)  AT K=  16, I=   1, J=  90


 TOTAL NUMBER OF POINT SOURCES/SINKS PRESENT IN THE FLOW MODEL =    30

 MAXIMUM STEPSIZE WHICH MEETS STABILITY CRITERION OF THE SINK & SOURCE TERM
 =  12.26    (WHEN MIN. R.F.=1)  AT K=  17, I=   1, J=  91

 MAXIMUM STEPSIZE WHICH MEETS STABILITY CRITERION OF THE DISPERSION TERM
 =  4.042    (WHEN MIN. R.F.=1)  AT K=  17, I=   1, J=  90
     1 CALLS TO GCG PACKAGE FOR TRANSPORT TIME STEP  39 IN FLOW TIME STEP   1 STRESS PERIOD   1
     8 TOTAL ITERATIONS
     1 CALLS TO GCG PACKAGE FOR TRANSPORT TIME STEP  39 IN FLOW TIME STEP   1 STRESS PERIOD   1
    10 TOTAL ITERATIONS
 
 SOLVING FOR HEAD 


     2 CALLS TO PCG ROUTINE FOR TIME STEP   1 IN STRESS PERIOD    1
    10 TOTAL ITERATIONS

 MAXIMUM HEAD CHANGE FOR EACH ITERATION (1 INDICATES THE FIRST INNER ITERATION):

    HEAD CHANGE    HEAD CHANGE    HEAD CHANGE    HEAD CHANGE    HEAD CHANGE 
   LAYER,ROW,COL  LAYER,ROW,COL  LAYER,ROW,COL  LAYER,ROW,COL  LAYER,ROW,COL
 ---------------------------------------------------------------------------
  1 -0.1385E-01  0 -0.8525E-02  0  0.4318E-02  0  0.9679E-02  0 -0.7055E-02
   ( 15,  1, 86)  (  6,  1, 42)  (  7,  1, 12)  (  7,  1, 43)  (  6,  1, 44)
  0  0.5618E-02  0  0.1589E-02  0  0.1072E-02  0  0.7321E-03  1 -0.4381E-03
   ( 11,  1, 67)  ( 11,  1, 50)  ( 11,  1, 63)  ( 11,  1, 57)  ( 11,  1, 70)

 MAXIMUM RESIDUAL FOR EACH ITERATION (1 INDICATES THE FIRST INNER ITERATION):

    RESIDUAL       RESIDUAL       RESIDUAL       RESIDUAL       RESIDUAL    
   LAYER,ROW,COL  LAYER,ROW,COL  LAYER,ROW,COL  LAYER,ROW,COL  LAYER,ROW,COL
 ---------------------------------------------------------------------------
  1 -0.1380E+06  0  0.9824E+05  0  0.9748E+05  0  0.7875E+05  0  -6442.    
   ( 21,  1, 89)  ( 19,  1, 89)  ( 19,  1, 89)  ( 19,  1, 89)  ( 17,  1, 88)
  0  -3239.      0  -2629.      0  -1924.      0  -440.9      1  -384.4    
   ( 17,  1, 88)  ( 22,  1, 87)  ( 22,  1, 87)  ( 22,  1, 87)  ( 22,  1, 87)


 FLOW MODEL IS TRANSIENT
 FLOW MODEL CONTAINS CONSTANT-HEAD CELLS


 MAXIMUM STEPSIZE DURING WHICH ANY PARTICLE CANNOT MOVE MORE THAN ONE CELL
 =  13.18    (WHEN MIN. R.F.=1)  AT K=  17, I=   1, J=  90

 MAXIMUM STEPSIZE WHICH MEETS STABILITY CRITERION OF THE ADVECTION TERM
 (FOR PURE FINITE-DIFFERENCE OPTION, MIXELM=0) 
 =  7.981    (WHEN MIN. R.F.=1)  AT K=  16, I=   1, J=  90


 TOTAL NUMBER OF POINT SOURCES/SINKS PRESENT IN THE FLOW MODEL =    30

 MAXIMUM STEPSIZE WHICH MEETS STABILITY CRITERION OF THE SINK & SOURCE TERM
 =  12.14    (WHEN MIN. R.F.=1)  AT K=  17, I=   1, J=  91

 MAXIMUM STEPSIZE WHICH MEETS STABILITY CRITERION OF THE DISPERSION TERM
 =  4.360    (WHEN MIN. R.F.=1)  AT K=  17, I=   1, J=  90
     1 CALLS TO GCG PACKAGE FOR TRANSPORT TIME STEP  40 IN FLOW TIME STEP   1 STRESS PERIOD   1
     7 TOTAL ITERATIONS
  MAXIMUM CONCENTRATION CHANGES FOR EACH ITERATION:
  MAX. CHANGE LAYER,ROW,COL MAX. CHANGE LAYER,ROW,COL MAX. CHANGE LAYER,ROW,COL MAX. CHANGE LAYER,ROW,COL MAX. CHANGE LAYER,ROW,COL
 ------------------------------------------------------------------------------------------------------------------------------------
   0.4916E-01 ( 20,  1, 87)  0.3306E-02 ( 19,  1, 87)  0.2207E-02 ( 18,  1, 87)  0.2162E-03 ( 16,  1, 88)  0.1404E-03 ( 17,  1, 89)
   0.3047E-04 ( 16,  1, 90)  0.6511E-06 ( 21,  1, 78)
     1 CALLS TO GCG PACKAGE FOR TRANSPORT TIME STEP  40 IN FLOW TIME STEP   1 STRESS PERIOD   1
    10 TOTAL ITERATIONS
  MAXIMUM CONCENTRATION CHANGES FOR EACH ITERATION:
  MAX. CHANGE LAYER,ROW,COL MAX. CHANGE LAYER,ROW,COL MAX. CHANGE LAYER,ROW,COL MAX. CHANGE LAYER,ROW,COL MAX. CHANGE LAYER,ROW,COL
 ------------------------------------------------------------------------------------------------------------------------------------
   0.6900E-01 ( 20,  1, 88)  0.1207E-01 ( 20,  1, 86)  0.3064E-02 ( 17,  1, 84)  0.5801E-03 ( 19,  1, 87)  0.1144E-03 ( 17,  1, 87)
   0.8042E-04 ( 17,  1, 88)  0.9877E-05 ( 17,  1, 87)  0.8061E-05 ( 17,  1, 90)  0.1454E-05 ( 17,  1, 90)  0.1348E-06 ( 17,  1, 90)



 >>>>>>>>>>>>>>>>>>>>>>>>>>>>>>>>>>>>>>>>>>>>>>>>>>>>>>>FOR COMPONENT NO. 01<<<<<<<<<<<<<<<<<<<<<<<<<<<<<<<<<<<<<<<<<<<<<<<<<<<<<<<


                                            -------------------------------------------
                                                      TRANSPORT STEP NO.   40
                                            -------------------------------------------

 TOTAL ELAPSED TIME SINCE BEGINNING OF SIMULATION =   2000.000    D   
 .....................................................................

                     CUMMULATIVE MASS BUDGETS AT END OF TRANSPORT STEP   40, TIME STEP    1, STRESS PERIOD    1
                     ------------------------------------------------------------------------------------------

                                                             IN                           OUT
                                                      ----------------             ----------------
                               CONSTANT CONCENTRATION:    0.000000                    0.000000    
                                        CONSTANT HEAD:   0.7928736E+08              -0.7919478E+08
                                                WELLS:    0.000000                    0.000000    
                                             RECHARGE:    0.000000                    0.000000    
                               1ST/0TH ORDER REACTION:    0.000000                    0.000000    
                                MASS STORAGE (SOLUTE):   0.1113039E+08              -0.1122299E+08
                            ---------------------------------------------------------------------------
                                              [TOTAL]:   0.9041785E+08 KG           -0.9041787E+08 KG  

                                                          NET (IN - OUT):   -11.96930    
                                                   DISCREPANCY (PERCENT):  -0.1323776E-04



 >>>>>>>>>>>>>>>>>>>>>>>>>>>>>>>>>>>>>>>>>>>>>>>>>>>>>>>FOR COMPONENT NO. 02<<<<<<<<<<<<<<<<<<<<<<<<<<<<<<<<<<<<<<<<<<<<<<<<<<<<<<<


                                            -------------------------------------------
                                                      TRANSPORT STEP NO.   40
                                            -------------------------------------------

 TOTAL ELAPSED TIME SINCE BEGINNING OF SIMULATION =   2000.000    D   
 .....................................................................

                     CUMMULATIVE MASS BUDGETS AT END OF TRANSPORT STEP   40, TIME STEP    1, STRESS PERIOD    1
                     ------------------------------------------------------------------------------------------

                                                             IN                           OUT
                                                      ----------------             ----------------
                               CONSTANT CONCENTRATION:    0.000000                    0.000000    
                                        CONSTANT HEAD:    0.000000                  -0.1869268E+10
                                                WELLS:    0.000000                    0.000000    
                                             RECHARGE:    0.000000                    0.000000    
                               1ST/0TH ORDER REACTION:   0.3310000E+11                0.000000    
                                MASS STORAGE (SOLUTE):   0.9357951E+08              -0.3132431E+11
                            ---------------------------------------------------------------------------
                                              [TOTAL]:   0.3319359E+11 KG           -0.3319359E+11 KG  

                                                          NET (IN - OUT):   -97.82589    
                                                   DISCREPANCY (PERCENT):  -0.2947132E-06
 
 SOLVING FOR HEAD 


     2 CALLS TO PCG ROUTINE FOR TIME STEP   1 IN STRESS PERIOD    1
     9 TOTAL ITERATIONS

 MAXIMUM HEAD CHANGE FOR EACH ITERATION (1 INDICATES THE FIRST INNER ITERATION):

    HEAD CHANGE    HEAD CHANGE    HEAD CHANGE    HEAD CHANGE    HEAD CHANGE 
   LAYER,ROW,COL  LAYER,ROW,COL  LAYER,ROW,COL  LAYER,ROW,COL  LAYER,ROW,COL
 ---------------------------------------------------------------------------
  1  0.1342E-01  0 -0.3917E-02  0 -0.2595E-02  0  0.6398E-02  0 -0.8106E-02
   ( 15,  1, 86)  ( 17,  1, 89)  (  8,  1, 12)  ( 11,  1, 55)  ( 11,  1, 55)
  0  0.2502E-02  0 -0.1027E-02  0 -0.6351E-03  1  0.5799E-03
   ( 11,  1, 55)  ( 11,  1, 49)  ( 11,  1, 57)  ( 11,  1, 58)

 MAXIMUM RESIDUAL FOR EACH ITERATION (1 INDICATES THE FIRST INNER ITERATION):

    RESIDUAL       RESIDUAL       RESIDUAL       RESIDUAL       RESIDUAL    
   LAYER,ROW,COL  LAYER,ROW,COL  LAYER,ROW,COL  LAYER,ROW,COL  LAYER,ROW,COL
 ---------------------------------------------------------------------------
  1  0.1367E+06  0 -0.9736E+05  0 -0.9610E+05  0 -0.1543E+05  0   4350.    
   ( 21,  1, 89)  ( 19,  1, 89)  ( 19,  1, 89)  ( 19,  1, 89)  ( 17,  1, 88)
  0   2768.      0   2360.      0   776.5      1   650.3    
   ( 22,  1, 87)  ( 22,  1, 87)  ( 22,  1, 87)  ( 22,  1, 87)


 FLOW MODEL IS TRANSIENT
 FLOW MODEL CONTAINS CONSTANT-HEAD CELLS


 MAXIMUM STEPSIZE DURING WHICH ANY PARTICLE CANNOT MOVE MORE THAN ONE CELL
 =  12.81    (WHEN MIN. R.F.=1)  AT K=  17, I=   1, J=  90

 MAXIMUM STEPSIZE WHICH MEETS STABILITY CRITERION OF THE ADVECTION TERM
 (FOR PURE FINITE-DIFFERENCE OPTION, MIXELM=0) 
 =  8.016    (WHEN MIN. R.F.=1)  AT K=  16, I=   1, J=  90


 TOTAL NUMBER OF POINT SOURCES/SINKS PRESENT IN THE FLOW MODEL =    30

 MAXIMUM STEPSIZE WHICH MEETS STABILITY CRITERION OF THE SINK & SOURCE TERM
 =  12.17    (WHEN MIN. R.F.=1)  AT K=  17, I=   1, J=  91

 MAXIMUM STEPSIZE WHICH MEETS STABILITY CRITERION OF THE DISPERSION TERM
 =  4.011    (WHEN MIN. R.F.=1)  AT K=  17, I=   1, J=  90
     1 CALLS TO GCG PACKAGE FOR TRANSPORT TIME STEP  41 IN FLOW TIME STEP   1 STRESS PERIOD   1
     8 TOTAL ITERATIONS
     1 CALLS TO GCG PACKAGE FOR TRANSPORT TIME STEP  41 IN FLOW TIME STEP   1 STRESS PERIOD   1
    10 TOTAL ITERATIONS
 
 SOLVING FOR HEAD 


     2 CALLS TO PCG ROUTINE FOR TIME STEP   1 IN STRESS PERIOD    1
    11 TOTAL ITERATIONS

 MAXIMUM HEAD CHANGE FOR EACH ITERATION (1 INDICATES THE FIRST INNER ITERATION):

    HEAD CHANGE    HEAD CHANGE    HEAD CHANGE    HEAD CHANGE    HEAD CHANGE 
   LAYER,ROW,COL  LAYER,ROW,COL  LAYER,ROW,COL  LAYER,ROW,COL  LAYER,ROW,COL
 ---------------------------------------------------------------------------
  1 -0.1340E-01  0  0.3682E-02  0  0.2509E-02  0 -0.8694E-02  0  0.8647E-02
   ( 15,  1, 86)  ( 17,  1, 89)  (  8,  1, 12)  (  7,  1, 45)  (  7,  1, 45)
  0 -0.2577E-02  0  0.1223E-02  0  0.1180E-02  0 -0.1265E-02  0 -0.2767E-03
   ( 11,  1, 70)  ( 11,  1, 70)  ( 11,  1, 70)  ( 11,  1, 70)  ( 11,  1, 58)
  1  0.1163E-03
   ( 11,  1, 70)

 MAXIMUM RESIDUAL FOR EACH ITERATION (1 INDICATES THE FIRST INNER ITERATION):

    RESIDUAL       RESIDUAL       RESIDUAL       RESIDUAL       RESIDUAL    
   LAYER,ROW,COL  LAYER,ROW,COL  LAYER,ROW,COL  LAYER,ROW,COL  LAYER,ROW,COL
 ---------------------------------------------------------------------------
  1 -0.1313E+06  0  0.9132E+05  0  0.9007E+05  0  0.3521E+05  0   6089.    
   ( 21,  1, 89)  ( 19,  1, 89)  ( 19,  1, 89)  ( 19,  1, 89)  ( 17,  1, 87)
  0  -2854.      0  -2589.      0  -943.0      0  -367.6      0   275.4    
   ( 22,  1, 87)  ( 22,  1, 87)  ( 22,  1, 87)  ( 22,  1, 87)  ( 18,  1, 90)
  1   221.3    
   ( 18,  1, 90)


 FLOW MODEL IS TRANSIENT
 FLOW MODEL CONTAINS CONSTANT-HEAD CELLS


 MAXIMUM STEPSIZE DURING WHICH ANY PARTICLE CANNOT MOVE MORE THAN ONE CELL
 =  13.19    (WHEN MIN. R.F.=1)  AT K=  17, I=   1, J=  90

 MAXIMUM STEPSIZE WHICH MEETS STABILITY CRITERION OF THE ADVECTION TERM
 (FOR PURE FINITE-DIFFERENCE OPTION, MIXELM=0) 
 =  7.990    (WHEN MIN. R.F.=1)  AT K=  16, I=   1, J=  90


 TOTAL NUMBER OF POINT SOURCES/SINKS PRESENT IN THE FLOW MODEL =    30

 MAXIMUM STEPSIZE WHICH MEETS STABILITY CRITERION OF THE SINK & SOURCE TERM
 =  12.15    (WHEN MIN. R.F.=1)  AT K=  17, I=   1, J=  91

 MAXIMUM STEPSIZE WHICH MEETS STABILITY CRITERION OF THE DISPERSION TERM
 =  4.359    (WHEN MIN. R.F.=1)  AT K=  17, I=   1, J=  90
     1 CALLS TO GCG PACKAGE FOR TRANSPORT TIME STEP  42 IN FLOW TIME STEP   1 STRESS PERIOD   1
     9 TOTAL ITERATIONS
     1 CALLS TO GCG PACKAGE FOR TRANSPORT TIME STEP  42 IN FLOW TIME STEP   1 STRESS PERIOD   1
    10 TOTAL ITERATIONS
 
 SOLVING FOR HEAD 


     2 CALLS TO PCG ROUTINE FOR TIME STEP   1 IN STRESS PERIOD    1
     8 TOTAL ITERATIONS

 MAXIMUM HEAD CHANGE FOR EACH ITERATION (1 INDICATES THE FIRST INNER ITERATION):

    HEAD CHANGE    HEAD CHANGE    HEAD CHANGE    HEAD CHANGE    HEAD CHANGE 
   LAYER,ROW,COL  LAYER,ROW,COL  LAYER,ROW,COL  LAYER,ROW,COL  LAYER,ROW,COL
 ---------------------------------------------------------------------------
  1  0.1345E-01  0 -0.3623E-02  0 -0.2317E-02  0  0.5586E-02  0 -0.7530E-02
   ( 15,  1, 86)  ( 17,  1, 89)  (  8,  1, 12)  ( 11,  1, 50)  ( 11,  1, 50)
  0  0.2777E-02  0 -0.5954E-03  1  0.4701E-03
   ( 11,  1, 50)  ( 11,  1, 37)  ( 11,  1, 37)

 MAXIMUM RESIDUAL FOR EACH ITERATION (1 INDICATES THE FIRST INNER ITERATION):

    RESIDUAL       RESIDUAL       RESIDUAL       RESIDUAL       RESIDUAL    
   LAYER,ROW,COL  LAYER,ROW,COL  LAYER,ROW,COL  LAYER,ROW,COL  LAYER,ROW,COL
 ---------------------------------------------------------------------------
  1  0.1307E+06  0 -0.9060E+05  0 -0.8913E+05  0 -0.1354E+05  0  -4011.    
   ( 21,  1, 89)  ( 19,  1, 89)  ( 19,  1, 89)  ( 17,  1, 87)  ( 17,  1, 87)
  0   2902.      0   2193.      1   1960.    
   ( 22,  1, 87)  ( 22,  1, 87)  ( 22,  1, 87)


 FLOW MODEL IS TRANSIENT
 FLOW MODEL CONTAINS CONSTANT-HEAD CELLS


 MAXIMUM STEPSIZE DURING WHICH ANY PARTICLE CANNOT MOVE MORE THAN ONE CELL
 =  12.82    (WHEN MIN. R.F.=1)  AT K=  17, I=   1, J=  90

 MAXIMUM STEPSIZE WHICH MEETS STABILITY CRITERION OF THE ADVECTION TERM
 (FOR PURE FINITE-DIFFERENCE OPTION, MIXELM=0) 
 =  8.014    (WHEN MIN. R.F.=1)  AT K=  16, I=   1, J=  90


 TOTAL NUMBER OF POINT SOURCES/SINKS PRESENT IN THE FLOW MODEL =    30

 MAXIMUM STEPSIZE WHICH MEETS STABILITY CRITERION OF THE SINK & SOURCE TERM
 =  12.17    (WHEN MIN. R.F.=1)  AT K=  17, I=   1, J=  91

 MAXIMUM STEPSIZE WHICH MEETS STABILITY CRITERION OF THE DISPERSION TERM
 =  4.022    (WHEN MIN. R.F.=1)  AT K=  17, I=   1, J=  90
     1 CALLS TO GCG PACKAGE FOR TRANSPORT TIME STEP  43 IN FLOW TIME STEP   1 STRESS PERIOD   1
     8 TOTAL ITERATIONS
     1 CALLS TO GCG PACKAGE FOR TRANSPORT TIME STEP  43 IN FLOW TIME STEP   1 STRESS PERIOD   1
    10 TOTAL ITERATIONS
 
 SOLVING FOR HEAD 


     2 CALLS TO PCG ROUTINE FOR TIME STEP   1 IN STRESS PERIOD    1
     9 TOTAL ITERATIONS

 MAXIMUM HEAD CHANGE FOR EACH ITERATION (1 INDICATES THE FIRST INNER ITERATION):

    HEAD CHANGE    HEAD CHANGE    HEAD CHANGE    HEAD CHANGE    HEAD CHANGE 
   LAYER,ROW,COL  LAYER,ROW,COL  LAYER,ROW,COL  LAYER,ROW,COL  LAYER,ROW,COL
 ---------------------------------------------------------------------------
  1 -0.1371E-01  0  0.3927E-02  0  0.2598E-02  0  0.9347E-02  0 -0.8309E-02
   ( 15,  1, 86)  ( 17,  1, 89)  (  7,  1, 12)  ( 11,  1, 68)  (  9,  1, 51)
  0 -0.1268E-02  0  0.1022E-02  0  0.8028E-03  1 -0.7463E-03
   ( 11,  1, 70)  ( 11,  1, 69)  ( 11,  1, 58)  ( 11,  1, 70)

 MAXIMUM RESIDUAL FOR EACH ITERATION (1 INDICATES THE FIRST INNER ITERATION):

    RESIDUAL       RESIDUAL       RESIDUAL       RESIDUAL       RESIDUAL    
   LAYER,ROW,COL  LAYER,ROW,COL  LAYER,ROW,COL  LAYER,ROW,COL  LAYER,ROW,COL
 ---------------------------------------------------------------------------
  1 -0.1351E+06  0  0.9569E+05  0  0.9444E+05  0  0.5396E+05  0   5977.    
   ( 21,  1, 89)  ( 19,  1, 89)  ( 19,  1, 89)  ( 19,  1, 89)  ( 17,  1, 87)
  0  -2813.      0  -2532.      0  -863.3      1  -724.8    
   ( 22,  1, 87)  ( 22,  1, 87)  ( 22,  1, 87)  ( 22,  1, 87)


 FLOW MODEL IS TRANSIENT
 FLOW MODEL CONTAINS CONSTANT-HEAD CELLS


 MAXIMUM STEPSIZE DURING WHICH ANY PARTICLE CANNOT MOVE MORE THAN ONE CELL
 =  13.12    (WHEN MIN. R.F.=1)  AT K=  17, I=   1, J=  90

 MAXIMUM STEPSIZE WHICH MEETS STABILITY CRITERION OF THE ADVECTION TERM
 (FOR PURE FINITE-DIFFERENCE OPTION, MIXELM=0) 
 =  7.962    (WHEN MIN. R.F.=1)  AT K=  16, I=   1, J=  90


 TOTAL NUMBER OF POINT SOURCES/SINKS PRESENT IN THE FLOW MODEL =    30

 MAXIMUM STEPSIZE WHICH MEETS STABILITY CRITERION OF THE SINK & SOURCE TERM
 =  12.07    (WHEN MIN. R.F.=1)  AT K=  17, I=   1, J=  91

 MAXIMUM STEPSIZE WHICH MEETS STABILITY CRITERION OF THE DISPERSION TERM
 =  4.324    (WHEN MIN. R.F.=1)  AT K=  17, I=   1, J=  90
     1 CALLS TO GCG PACKAGE FOR TRANSPORT TIME STEP  44 IN FLOW TIME STEP   1 STRESS PERIOD   1
    10 TOTAL ITERATIONS
     1 CALLS TO GCG PACKAGE FOR TRANSPORT TIME STEP  44 IN FLOW TIME STEP   1 STRESS PERIOD   1
    10 TOTAL ITERATIONS
 
 SOLVING FOR HEAD 


     2 CALLS TO PCG ROUTINE FOR TIME STEP   1 IN STRESS PERIOD    1
     8 TOTAL ITERATIONS

 MAXIMUM HEAD CHANGE FOR EACH ITERATION (1 INDICATES THE FIRST INNER ITERATION):

    HEAD CHANGE    HEAD CHANGE    HEAD CHANGE    HEAD CHANGE    HEAD CHANGE 
   LAYER,ROW,COL  LAYER,ROW,COL  LAYER,ROW,COL  LAYER,ROW,COL  LAYER,ROW,COL
 ---------------------------------------------------------------------------
  1  0.1380E-01  0 -0.3957E-02  0 -0.3829E-02  0  0.1189E-01  0 -0.1161E-01
   ( 15,  1, 86)  ( 17,  1, 89)  (  8,  1, 12)  ( 11,  1, 55)  ( 11,  1, 55)
  0 -0.2205E-02  0 -0.5425E-03  1  0.3719E-03
   ( 11,  1, 68)  ( 11,  1, 51)  ( 11,  1, 50)

 MAXIMUM RESIDUAL FOR EACH ITERATION (1 INDICATES THE FIRST INNER ITERATION):

    RESIDUAL       RESIDUAL       RESIDUAL       RESIDUAL       RESIDUAL    
   LAYER,ROW,COL  LAYER,ROW,COL  LAYER,ROW,COL  LAYER,ROW,COL  LAYER,ROW,COL
 ---------------------------------------------------------------------------
  1  0.1325E+06  0 -0.9345E+05  0 -0.9268E+05  0 -0.2724E+05  0  -5207.    
   ( 21,  1, 89)  ( 19,  1, 89)  ( 19,  1, 89)  ( 19,  1, 89)  ( 17,  1, 87)
  0   2826.      0   2375.      1   2013.    
   ( 22,  1, 87)  ( 22,  1, 87)  ( 22,  1, 87)


 FLOW MODEL IS TRANSIENT
 FLOW MODEL CONTAINS CONSTANT-HEAD CELLS


 MAXIMUM STEPSIZE DURING WHICH ANY PARTICLE CANNOT MOVE MORE THAN ONE CELL
 =  12.81    (WHEN MIN. R.F.=1)  AT K=  17, I=   1, J=  90

 MAXIMUM STEPSIZE WHICH MEETS STABILITY CRITERION OF THE ADVECTION TERM
 (FOR PURE FINITE-DIFFERENCE OPTION, MIXELM=0) 
 =  8.011    (WHEN MIN. R.F.=1)  AT K=  16, I=   1, J=  90


 TOTAL NUMBER OF POINT SOURCES/SINKS PRESENT IN THE FLOW MODEL =    30

 MAXIMUM STEPSIZE WHICH MEETS STABILITY CRITERION OF THE SINK & SOURCE TERM
 =  12.15    (WHEN MIN. R.F.=1)  AT K=  17, I=   1, J=  91

 MAXIMUM STEPSIZE WHICH MEETS STABILITY CRITERION OF THE DISPERSION TERM
 =  4.014    (WHEN MIN. R.F.=1)  AT K=  17, I=   1, J=  90
     1 CALLS TO GCG PACKAGE FOR TRANSPORT TIME STEP  45 IN FLOW TIME STEP   1 STRESS PERIOD   1
     8 TOTAL ITERATIONS
  MAXIMUM CONCENTRATION CHANGES FOR EACH ITERATION:
  MAX. CHANGE LAYER,ROW,COL MAX. CHANGE LAYER,ROW,COL MAX. CHANGE LAYER,ROW,COL MAX. CHANGE LAYER,ROW,COL MAX. CHANGE LAYER,ROW,COL
 ------------------------------------------------------------------------------------------------------------------------------------
   0.5236E-01 ( 20,  1, 87)  0.4244E-02 ( 19,  1, 89)  0.2118E-02 ( 17,  1, 86)  0.4655E-03 ( 20,  1, 89)  0.9421E-04 ( 16,  1, 89)
   0.2111E-04 ( 20,  1, 89)  0.1852E-04 ( 16,  1, 90)  0.6631E-06 ( 17,  1, 90)
     1 CALLS TO GCG PACKAGE FOR TRANSPORT TIME STEP  45 IN FLOW TIME STEP   1 STRESS PERIOD   1
    10 TOTAL ITERATIONS
  MAXIMUM CONCENTRATION CHANGES FOR EACH ITERATION:
  MAX. CHANGE LAYER,ROW,COL MAX. CHANGE LAYER,ROW,COL MAX. CHANGE LAYER,ROW,COL MAX. CHANGE LAYER,ROW,COL MAX. CHANGE LAYER,ROW,COL
 ------------------------------------------------------------------------------------------------------------------------------------
   0.7265E-01 ( 19,  1, 89)  0.1398E-01 ( 20,  1, 87)  0.2605E-02 ( 17,  1, 85)  0.5582E-03 ( 17,  1, 90)  0.9289E-04 ( 17,  1, 81)
   0.3319E-04 ( 17,  1, 90)  0.4140E-04 ( 17,  1, 90)  0.1915E-04 ( 17,  1, 90)  0.3803E-05 ( 17,  1, 90)  0.5551E-06 ( 17,  1, 90)
 
 SOLVING FOR HEAD 


     2 CALLS TO PCG ROUTINE FOR TIME STEP   1 IN STRESS PERIOD    1
     8 TOTAL ITERATIONS

 MAXIMUM HEAD CHANGE FOR EACH ITERATION (1 INDICATES THE FIRST INNER ITERATION):

    HEAD CHANGE    HEAD CHANGE    HEAD CHANGE    HEAD CHANGE    HEAD CHANGE 
   LAYER,ROW,COL  LAYER,ROW,COL  LAYER,ROW,COL  LAYER,ROW,COL  LAYER,ROW,COL
 ---------------------------------------------------------------------------
  1 -0.1367E-01  0  0.3983E-02  0  0.3116E-02  0 -0.1083E-01  0  0.1024E-01
   ( 15,  1, 86)  ( 17,  1, 89)  (  8,  1, 12)  ( 11,  1, 50)  ( 11,  1, 50)
  0 -0.1709E-02  0 -0.9873E-03  1  0.5333E-03
   ( 11,  1, 27)  (  6,  1, 31)  (  6,  1, 38)

 MAXIMUM RESIDUAL FOR EACH ITERATION (1 INDICATES THE FIRST INNER ITERATION):

    RESIDUAL       RESIDUAL       RESIDUAL       RESIDUAL       RESIDUAL    
   LAYER,ROW,COL  LAYER,ROW,COL  LAYER,ROW,COL  LAYER,ROW,COL  LAYER,ROW,COL
 ---------------------------------------------------------------------------
  1 -0.1318E+06  0  0.9269E+05  0  0.9174E+05  0  0.5262E+05  0   5801.    
   ( 21,  1, 89)  ( 19,  1, 89)  ( 19,  1, 89)  ( 19,  1, 89)  ( 17,  1, 87)
  0  -2871.      0  -2607.      1  -1793.    
   ( 17,  1, 88)  ( 22,  1, 87)  ( 22,  1, 87)


 FLOW MODEL IS TRANSIENT
 FLOW MODEL CONTAINS CONSTANT-HEAD CELLS


 MAXIMUM STEPSIZE DURING WHICH ANY PARTICLE CANNOT MOVE MORE THAN ONE CELL
 =  13.16    (WHEN MIN. R.F.=1)  AT K=  17, I=   1, J=  90

 MAXIMUM STEPSIZE WHICH MEETS STABILITY CRITERION OF THE ADVECTION TERM
 (FOR PURE FINITE-DIFFERENCE OPTION, MIXELM=0) 
 =  7.972    (WHEN MIN. R.F.=1)  AT K=  16, I=   1, J=  90


 TOTAL NUMBER OF POINT SOURCES/SINKS PRESENT IN THE FLOW MODEL =    30

 MAXIMUM STEPSIZE WHICH MEETS STABILITY CRITERION OF THE SINK & SOURCE TERM
 =  12.09    (WHEN MIN. R.F.=1)  AT K=  17, I=   1, J=  91

 MAXIMUM STEPSIZE WHICH MEETS STABILITY CRITERION OF THE DISPERSION TERM
 =  4.344    (WHEN MIN. R.F.=1)  AT K=  17, I=   1, J=  90
     1 CALLS TO GCG PACKAGE FOR TRANSPORT TIME STEP  46 IN FLOW TIME STEP   1 STRESS PERIOD   1
    10 TOTAL ITERATIONS
     1 CALLS TO GCG PACKAGE FOR TRANSPORT TIME STEP  46 IN FLOW TIME STEP   1 STRESS PERIOD   1
    10 TOTAL ITERATIONS
 
 SOLVING FOR HEAD 


     2 CALLS TO PCG ROUTINE FOR TIME STEP   1 IN STRESS PERIOD    1
     9 TOTAL ITERATIONS

 MAXIMUM HEAD CHANGE FOR EACH ITERATION (1 INDICATES THE FIRST INNER ITERATION):

    HEAD CHANGE    HEAD CHANGE    HEAD CHANGE    HEAD CHANGE    HEAD CHANGE 
   LAYER,ROW,COL  LAYER,ROW,COL  LAYER,ROW,COL  LAYER,ROW,COL  LAYER,ROW,COL
 ---------------------------------------------------------------------------
  1  0.1384E-01  0  0.1021E-01  0 -0.4714E-02  0  0.9836E-02  0  0.6406E-02
   ( 15,  1, 86)  (  6,  1, 38)  (  7,  1, 12)  ( 11,  1, 35)  (  7,  1, 45)
  0  0.3696E-02  0 -0.1404E-02  0 -0.5025E-03  1 -0.5329E-03
   ( 11,  1, 49)  ( 11,  1, 49)  ( 11,  1, 68)  ( 11,  1, 52)

 MAXIMUM RESIDUAL FOR EACH ITERATION (1 INDICATES THE FIRST INNER ITERATION):

    RESIDUAL       RESIDUAL       RESIDUAL       RESIDUAL       RESIDUAL    
   LAYER,ROW,COL  LAYER,ROW,COL  LAYER,ROW,COL  LAYER,ROW,COL  LAYER,ROW,COL
 ---------------------------------------------------------------------------
  1  0.1350E+06  0 -0.9560E+05  0 -0.9497E+05  0 -0.7943E+05  0   6882.    
   ( 21,  1, 89)  ( 19,  1, 89)  ( 19,  1, 89)  ( 19,  1, 89)  ( 17,  1, 88)
  0   3363.      0   2539.      0   1764.      1   1551.    
   ( 17,  1, 88)  ( 22,  1, 87)  ( 22,  1, 87)  ( 22,  1, 87)


 FLOW MODEL IS TRANSIENT
 FLOW MODEL CONTAINS CONSTANT-HEAD CELLS


 MAXIMUM STEPSIZE DURING WHICH ANY PARTICLE CANNOT MOVE MORE THAN ONE CELL
 =  12.86    (WHEN MIN. R.F.=1)  AT K=  17, I=   1, J=  90

 MAXIMUM STEPSIZE WHICH MEETS STABILITY CRITERION OF THE ADVECTION TERM
 (FOR PURE FINITE-DIFFERENCE OPTION, MIXELM=0) 
 =  8.034    (WHEN MIN. R.F.=1)  AT K=  16, I=   1, J=  90


 TOTAL NUMBER OF POINT SOURCES/SINKS PRESENT IN THE FLOW MODEL =    30

 MAXIMUM STEPSIZE WHICH MEETS STABILITY CRITERION OF THE SINK & SOURCE TERM
 =  12.21    (WHEN MIN. R.F.=1)  AT K=  17, I=   1, J=  91

 MAXIMUM STEPSIZE WHICH MEETS STABILITY CRITERION OF THE DISPERSION TERM
 =  4.029    (WHEN MIN. R.F.=1)  AT K=  17, I=   1, J=  90
     1 CALLS TO GCG PACKAGE FOR TRANSPORT TIME STEP  47 IN FLOW TIME STEP   1 STRESS PERIOD   1
     8 TOTAL ITERATIONS
     1 CALLS TO GCG PACKAGE FOR TRANSPORT TIME STEP  47 IN FLOW TIME STEP   1 STRESS PERIOD   1
    10 TOTAL ITERATIONS
 
 SOLVING FOR HEAD 


     2 CALLS TO PCG ROUTINE FOR TIME STEP   1 IN STRESS PERIOD    1
     8 TOTAL ITERATIONS

 MAXIMUM HEAD CHANGE FOR EACH ITERATION (1 INDICATES THE FIRST INNER ITERATION):

    HEAD CHANGE    HEAD CHANGE    HEAD CHANGE    HEAD CHANGE    HEAD CHANGE 
   LAYER,ROW,COL  LAYER,ROW,COL  LAYER,ROW,COL  LAYER,ROW,COL  LAYER,ROW,COL
 ---------------------------------------------------------------------------
  1 -0.1370E-01  0  0.4155E-02  0  0.3035E-02  0  0.1320E-01  0 -0.1355E-01
   ( 15,  1, 86)  ( 17,  1, 89)  (  8,  1, 12)  ( 11,  1, 52)  ( 11,  1, 52)
  0  0.1447E-02  0 -0.7581E-03  1  0.6155E-03
   ( 11,  1, 54)  ( 11,  1, 42)  ( 11,  1, 42)

 MAXIMUM RESIDUAL FOR EACH ITERATION (1 INDICATES THE FIRST INNER ITERATION):

    RESIDUAL       RESIDUAL       RESIDUAL       RESIDUAL       RESIDUAL    
   LAYER,ROW,COL  LAYER,ROW,COL  LAYER,ROW,COL  LAYER,ROW,COL  LAYER,ROW,COL
 ---------------------------------------------------------------------------
  1 -0.1335E+06  0  0.9454E+05  0  0.9356E+05  0  0.2947E+05  0  -5338.    
   ( 21,  1, 89)  ( 19,  1, 89)  ( 19,  1, 89)  ( 19,  1, 89)  ( 17,  1, 88)
  0  -2788.      0  -2503.      1  -1997.    
   ( 22,  1, 87)  ( 22,  1, 87)  ( 22,  1, 87)


 FLOW MODEL IS TRANSIENT
 FLOW MODEL CONTAINS CONSTANT-HEAD CELLS


 MAXIMUM STEPSIZE DURING WHICH ANY PARTICLE CANNOT MOVE MORE THAN ONE CELL
 =  13.21    (WHEN MIN. R.F.=1)  AT K=  17, I=   1, J=  90

 MAXIMUM STEPSIZE WHICH MEETS STABILITY CRITERION OF THE ADVECTION TERM
 (FOR PURE FINITE-DIFFERENCE OPTION, MIXELM=0) 
 =  7.993    (WHEN MIN. R.F.=1)  AT K=  16, I=   1, J=  90


 TOTAL NUMBER OF POINT SOURCES/SINKS PRESENT IN THE FLOW MODEL =    30

 MAXIMUM STEPSIZE WHICH MEETS STABILITY CRITERION OF THE SINK & SOURCE TERM
 =  12.16    (WHEN MIN. R.F.=1)  AT K=  17, I=   1, J=  91

 MAXIMUM STEPSIZE WHICH MEETS STABILITY CRITERION OF THE DISPERSION TERM
 =  4.375    (WHEN MIN. R.F.=1)  AT K=  17, I=   1, J=  90
     1 CALLS TO GCG PACKAGE FOR TRANSPORT TIME STEP  48 IN FLOW TIME STEP   1 STRESS PERIOD   1
    10 TOTAL ITERATIONS
     1 CALLS TO GCG PACKAGE FOR TRANSPORT TIME STEP  48 IN FLOW TIME STEP   1 STRESS PERIOD   1
    10 TOTAL ITERATIONS
 
 SOLVING FOR HEAD 


     2 CALLS TO PCG ROUTINE FOR TIME STEP   1 IN STRESS PERIOD    1
     9 TOTAL ITERATIONS

 MAXIMUM HEAD CHANGE FOR EACH ITERATION (1 INDICATES THE FIRST INNER ITERATION):

    HEAD CHANGE    HEAD CHANGE    HEAD CHANGE    HEAD CHANGE    HEAD CHANGE 
   LAYER,ROW,COL  LAYER,ROW,COL  LAYER,ROW,COL  LAYER,ROW,COL  LAYER,ROW,COL
 ---------------------------------------------------------------------------
  1  0.1375E-01  0  0.6551E-02  0 -0.5319E-02  0  0.1001E-01  0 -0.6862E-02
   ( 15,  1, 86)  ( 11,  1, 42)  (  8,  1, 12)  (  6,  1, 47)  ( 10,  1, 50)
  0 -0.3547E-02  0  0.1135E-02  0 -0.8008E-03  1  0.6317E-03
   ( 11,  1, 51)  ( 11,  1, 52)  ( 11,  1, 55)  ( 11,  1, 55)

 MAXIMUM RESIDUAL FOR EACH ITERATION (1 INDICATES THE FIRST INNER ITERATION):

    RESIDUAL       RESIDUAL       RESIDUAL       RESIDUAL       RESIDUAL    
   LAYER,ROW,COL  LAYER,ROW,COL  LAYER,ROW,COL  LAYER,ROW,COL  LAYER,ROW,COL
 ---------------------------------------------------------------------------
  1  0.1367E+06  0 -0.9689E+05  0 -0.9635E+05  0 -0.7678E+05  0   6428.    
   ( 21,  1, 89)  ( 19,  1, 89)  ( 19,  1, 89)  ( 19,  1, 89)  ( 17,  1, 88)
  0   3071.      0   2535.      0   1269.      1   1130.    
   ( 17,  1, 88)  ( 22,  1, 87)  ( 22,  1, 87)  ( 22,  1, 87)


 FLOW MODEL IS TRANSIENT
 FLOW MODEL CONTAINS CONSTANT-HEAD CELLS


 MAXIMUM STEPSIZE DURING WHICH ANY PARTICLE CANNOT MOVE MORE THAN ONE CELL
 =  12.87    (WHEN MIN. R.F.=1)  AT K=  17, I=   1, J=  90

 MAXIMUM STEPSIZE WHICH MEETS STABILITY CRITERION OF THE ADVECTION TERM
 (FOR PURE FINITE-DIFFERENCE OPTION, MIXELM=0) 
 =  8.043    (WHEN MIN. R.F.=1)  AT K=  16, I=   1, J=  90


 TOTAL NUMBER OF POINT SOURCES/SINKS PRESENT IN THE FLOW MODEL =    30

 MAXIMUM STEPSIZE WHICH MEETS STABILITY CRITERION OF THE SINK & SOURCE TERM
 =  12.25    (WHEN MIN. R.F.=1)  AT K=  17, I=   1, J=  91

 MAXIMUM STEPSIZE WHICH MEETS STABILITY CRITERION OF THE DISPERSION TERM
 =  4.032    (WHEN MIN. R.F.=1)  AT K=  17, I=   1, J=  90
     1 CALLS TO GCG PACKAGE FOR TRANSPORT TIME STEP  49 IN FLOW TIME STEP   1 STRESS PERIOD   1
     8 TOTAL ITERATIONS
     1 CALLS TO GCG PACKAGE FOR TRANSPORT TIME STEP  49 IN FLOW TIME STEP   1 STRESS PERIOD   1
    10 TOTAL ITERATIONS
 
 SOLVING FOR HEAD 


     2 CALLS TO PCG ROUTINE FOR TIME STEP   1 IN STRESS PERIOD    1
     8 TOTAL ITERATIONS

 MAXIMUM HEAD CHANGE FOR EACH ITERATION (1 INDICATES THE FIRST INNER ITERATION):

    HEAD CHANGE    HEAD CHANGE    HEAD CHANGE    HEAD CHANGE    HEAD CHANGE 
   LAYER,ROW,COL  LAYER,ROW,COL  LAYER,ROW,COL  LAYER,ROW,COL  LAYER,ROW,COL
 ---------------------------------------------------------------------------
  1 -0.1370E-01  0  0.4170E-02  0  0.3471E-02  0 -0.1115E-01  0  0.1142E-01
   ( 15,  1, 86)  ( 17,  1, 89)  (  8,  1, 12)  ( 11,  1, 55)  ( 11,  1, 55)
  0  0.2086E-02  0  0.6953E-03  1  0.4819E-03
   ( 11,  1, 68)  ( 11,  1, 49)  (  9,  1, 51)

 MAXIMUM RESIDUAL FOR EACH ITERATION (1 INDICATES THE FIRST INNER ITERATION):

    RESIDUAL       RESIDUAL       RESIDUAL       RESIDUAL       RESIDUAL    
   LAYER,ROW,COL  LAYER,ROW,COL  LAYER,ROW,COL  LAYER,ROW,COL  LAYER,ROW,COL
 ---------------------------------------------------------------------------
  1 -0.1358E+06  0  0.9628E+05  0  0.9538E+05  0  0.2314E+05  0  -5277.    
   ( 21,  1, 89)  ( 19,  1, 89)  ( 19,  1, 89)  ( 19,  1, 89)  ( 17,  1, 88)
  0  -2810.      0  -2416.      1  -2073.    
   ( 22,  1, 87)  ( 22,  1, 87)  ( 22,  1, 87)


 FLOW MODEL IS TRANSIENT
 FLOW MODEL CONTAINS CONSTANT-HEAD CELLS


 MAXIMUM STEPSIZE DURING WHICH ANY PARTICLE CANNOT MOVE MORE THAN ONE CELL
 =  13.24    (WHEN MIN. R.F.=1)  AT K=  17, I=   1, J=  90

 MAXIMUM STEPSIZE WHICH MEETS STABILITY CRITERION OF THE ADVECTION TERM
 (FOR PURE FINITE-DIFFERENCE OPTION, MIXELM=0) 
 =  8.003    (WHEN MIN. R.F.=1)  AT K=  16, I=   1, J=  90


 TOTAL NUMBER OF POINT SOURCES/SINKS PRESENT IN THE FLOW MODEL =    30

 MAXIMUM STEPSIZE WHICH MEETS STABILITY CRITERION OF THE SINK & SOURCE TERM
 =  12.18    (WHEN MIN. R.F.=1)  AT K=  17, I=   1, J=  91

 MAXIMUM STEPSIZE WHICH MEETS STABILITY CRITERION OF THE DISPERSION TERM
 =  4.385    (WHEN MIN. R.F.=1)  AT K=  17, I=   1, J=  90
     1 CALLS TO GCG PACKAGE FOR TRANSPORT TIME STEP  50 IN FLOW TIME STEP   1 STRESS PERIOD   1
     8 TOTAL ITERATIONS
  MAXIMUM CONCENTRATION CHANGES FOR EACH ITERATION:
  MAX. CHANGE LAYER,ROW,COL MAX. CHANGE LAYER,ROW,COL MAX. CHANGE LAYER,ROW,COL MAX. CHANGE LAYER,ROW,COL MAX. CHANGE LAYER,ROW,COL
 ------------------------------------------------------------------------------------------------------------------------------------
   0.4882E-01 ( 20,  1, 87)  0.3353E-02 ( 19,  1, 87)  0.2241E-02 ( 18,  1, 87)  0.2208E-03 ( 16,  1, 88)  0.1489E-03 ( 16,  1, 89)
   0.2908E-04 ( 16,  1, 90)  0.2196E-05 ( 21,  1, 78)  0.7146E-06 ( 21,  1, 78)
     1 CALLS TO GCG PACKAGE FOR TRANSPORT TIME STEP  50 IN FLOW TIME STEP   1 STRESS PERIOD   1
    10 TOTAL ITERATIONS
  MAXIMUM CONCENTRATION CHANGES FOR EACH ITERATION:
  MAX. CHANGE LAYER,ROW,COL MAX. CHANGE LAYER,ROW,COL MAX. CHANGE LAYER,ROW,COL MAX. CHANGE LAYER,ROW,COL MAX. CHANGE LAYER,ROW,COL
 ------------------------------------------------------------------------------------------------------------------------------------
   0.6581E-01 ( 19,  1, 88)  0.1137E-01 ( 20,  1, 87)  0.2261E-02 ( 17,  1, 84)  0.4702E-03 ( 23,  1, 87)  0.8103E-04 ( 17,  1, 87)
   0.6343E-04 ( 17,  1, 87)  0.6379E-05 ( 16,  1, 89)  0.4169E-05 ( 16,  1, 89)  0.1020E-05 ( 17,  1, 90)  0.1650E-06 ( 17,  1, 90)



 >>>>>>>>>>>>>>>>>>>>>>>>>>>>>>>>>>>>>>>>>>>>>>>>>>>>>>>FOR COMPONENT NO. 01<<<<<<<<<<<<<<<<<<<<<<<<<<<<<<<<<<<<<<<<<<<<<<<<<<<<<<<


                                            -------------------------------------------
                                                      TRANSPORT STEP NO.   50
                                            -------------------------------------------

 TOTAL ELAPSED TIME SINCE BEGINNING OF SIMULATION =   2500.000    D   
 .....................................................................

                     CUMMULATIVE MASS BUDGETS AT END OF TRANSPORT STEP   50, TIME STEP    1, STRESS PERIOD    1
                     ------------------------------------------------------------------------------------------

                                                             IN                           OUT
                                                      ----------------             ----------------
                               CONSTANT CONCENTRATION:    0.000000                    0.000000    
                                        CONSTANT HEAD:   0.9911101E+08              -0.9900608E+08
                                                WELLS:    0.000000                    0.000000    
                                             RECHARGE:    0.000000                    0.000000    
                               1ST/0TH ORDER REACTION:    0.000000                    0.000000    
                                MASS STORAGE (SOLUTE):   0.1390237E+08              -0.1400731E+08
                            ---------------------------------------------------------------------------
                                              [TOTAL]:   0.1130135E+09 KG           -0.1130135E+09 KG  

                                                          NET (IN - OUT):   -10.64635    
                                                   DISCREPANCY (PERCENT):  -0.9420423E-05



 >>>>>>>>>>>>>>>>>>>>>>>>>>>>>>>>>>>>>>>>>>>>>>>>>>>>>>>FOR COMPONENT NO. 02<<<<<<<<<<<<<<<<<<<<<<<<<<<<<<<<<<<<<<<<<<<<<<<<<<<<<<<


                                            -------------------------------------------
                                                      TRANSPORT STEP NO.   50
                                            -------------------------------------------

 TOTAL ELAPSED TIME SINCE BEGINNING OF SIMULATION =   2500.000    D   
 .....................................................................

                     CUMMULATIVE MASS BUDGETS AT END OF TRANSPORT STEP   50, TIME STEP    1, STRESS PERIOD    1
                     ------------------------------------------------------------------------------------------

                                                             IN                           OUT
                                                      ----------------             ----------------
                               CONSTANT CONCENTRATION:    0.000000                    0.000000    
                                        CONSTANT HEAD:    0.000000                  -0.2759397E+10
                                                WELLS:    0.000000                    0.000000    
                                             RECHARGE:    0.000000                    0.000000    
                               1ST/0TH ORDER REACTION:   0.4137500E+11                0.000000    
                                MASS STORAGE (SOLUTE):   0.1912887E+09              -0.3880689E+11
                            ---------------------------------------------------------------------------
                                              [TOTAL]:   0.4156630E+11 KG           -0.4156630E+11 KG  

                                                          NET (IN - OUT):   -141.2483    
                                                   DISCREPANCY (PERCENT):  -0.3398145E-06
 
 SOLVING FOR HEAD 


     2 CALLS TO PCG ROUTINE FOR TIME STEP   1 IN STRESS PERIOD    1
     9 TOTAL ITERATIONS

 MAXIMUM HEAD CHANGE FOR EACH ITERATION (1 INDICATES THE FIRST INNER ITERATION):

    HEAD CHANGE    HEAD CHANGE    HEAD CHANGE    HEAD CHANGE    HEAD CHANGE 
   LAYER,ROW,COL  LAYER,ROW,COL  LAYER,ROW,COL  LAYER,ROW,COL  LAYER,ROW,COL
 ---------------------------------------------------------------------------
  1  0.1379E-01  0  0.6356E-02  0 -0.4575E-02  0 -0.9918E-02  0  0.7537E-02
   ( 15,  1, 86)  (  7,  1, 49)  (  8,  1, 12)  (  7,  1, 50)  (  8,  1, 50)
  0 -0.2346E-02  0 -0.1415E-02  0 -0.4533E-03  1  0.4335E-03
   ( 11,  1, 64)  ( 11,  1, 56)  ( 11,  1, 71)  ( 11,  1, 70)

 MAXIMUM RESIDUAL FOR EACH ITERATION (1 INDICATES THE FIRST INNER ITERATION):

    RESIDUAL       RESIDUAL       RESIDUAL       RESIDUAL       RESIDUAL    
   LAYER,ROW,COL  LAYER,ROW,COL  LAYER,ROW,COL  LAYER,ROW,COL  LAYER,ROW,COL
 ---------------------------------------------------------------------------
  1  0.1377E+06  0 -0.9790E+05  0 -0.9721E+05  0 -0.7327E+05  0  -6016.    
   ( 21,  1, 89)  ( 19,  1, 89)  ( 19,  1, 89)  ( 19,  1, 89)  ( 17,  1, 87)
  0   2829.      0   2572.      0   1012.      1   898.4    
   ( 17,  1, 88)  ( 22,  1, 87)  ( 22,  1, 87)  ( 22,  1, 87)


 FLOW MODEL IS TRANSIENT
 FLOW MODEL CONTAINS CONSTANT-HEAD CELLS


 MAXIMUM STEPSIZE DURING WHICH ANY PARTICLE CANNOT MOVE MORE THAN ONE CELL
 =  12.88    (WHEN MIN. R.F.=1)  AT K=  17, I=   1, J=  90

 MAXIMUM STEPSIZE WHICH MEETS STABILITY CRITERION OF THE ADVECTION TERM
 (FOR PURE FINITE-DIFFERENCE OPTION, MIXELM=0) 
 =  8.049    (WHEN MIN. R.F.=1)  AT K=  16, I=   1, J=  90


 TOTAL NUMBER OF POINT SOURCES/SINKS PRESENT IN THE FLOW MODEL =    30

 MAXIMUM STEPSIZE WHICH MEETS STABILITY CRITERION OF THE SINK & SOURCE TERM
 =  12.26    (WHEN MIN. R.F.=1)  AT K=  17, I=   1, J=  91

 MAXIMUM STEPSIZE WHICH MEETS STABILITY CRITERION OF THE DISPERSION TERM
 =  4.037    (WHEN MIN. R.F.=1)  AT K=  17, I=   1, J=  90
     1 CALLS TO GCG PACKAGE FOR TRANSPORT TIME STEP  51 IN FLOW TIME STEP   1 STRESS PERIOD   1
     8 TOTAL ITERATIONS
     1 CALLS TO GCG PACKAGE FOR TRANSPORT TIME STEP  51 IN FLOW TIME STEP   1 STRESS PERIOD   1
    10 TOTAL ITERATIONS
 
 SOLVING FOR HEAD 


     2 CALLS TO PCG ROUTINE FOR TIME STEP   1 IN STRESS PERIOD    1
     8 TOTAL ITERATIONS

 MAXIMUM HEAD CHANGE FOR EACH ITERATION (1 INDICATES THE FIRST INNER ITERATION):

    HEAD CHANGE    HEAD CHANGE    HEAD CHANGE    HEAD CHANGE    HEAD CHANGE 
   LAYER,ROW,COL  LAYER,ROW,COL  LAYER,ROW,COL  LAYER,ROW,COL  LAYER,ROW,COL
 ---------------------------------------------------------------------------
  1 -0.1372E-01  0  0.4146E-02  0  0.3767E-02  0 -0.8546E-02  0 -0.9259E-02
   ( 15,  1, 86)  ( 17,  1, 89)  (  8,  1, 12)  ( 11,  1, 68)  ( 11,  1, 55)
  0  0.2148E-02  0  0.8256E-03  1 -0.5779E-03
   ( 11,  1, 55)  ( 11,  1, 63)  ( 11,  1, 62)

 MAXIMUM RESIDUAL FOR EACH ITERATION (1 INDICATES THE FIRST INNER ITERATION):

    RESIDUAL       RESIDUAL       RESIDUAL       RESIDUAL       RESIDUAL    
   LAYER,ROW,COL  LAYER,ROW,COL  LAYER,ROW,COL  LAYER,ROW,COL  LAYER,ROW,COL
 ---------------------------------------------------------------------------
  1 -0.1375E+06  0  0.9749E+05  0  0.9664E+05  0  0.2165E+05  0  -5149.    
   ( 21,  1, 89)  ( 19,  1, 89)  ( 19,  1, 89)  ( 19,  1, 89)  ( 17,  1, 88)
  0  -2823.      0  -2265.      1  -1946.    
   ( 22,  1, 87)  ( 22,  1, 87)  ( 22,  1, 87)


 FLOW MODEL IS TRANSIENT
 FLOW MODEL CONTAINS CONSTANT-HEAD CELLS


 MAXIMUM STEPSIZE DURING WHICH ANY PARTICLE CANNOT MOVE MORE THAN ONE CELL
 =  13.25    (WHEN MIN. R.F.=1)  AT K=  17, I=   1, J=  90

 MAXIMUM STEPSIZE WHICH MEETS STABILITY CRITERION OF THE ADVECTION TERM
 (FOR PURE FINITE-DIFFERENCE OPTION, MIXELM=0) 
 =  8.009    (WHEN MIN. R.F.=1)  AT K=  16, I=   1, J=  90


 TOTAL NUMBER OF POINT SOURCES/SINKS PRESENT IN THE FLOW MODEL =    30

 MAXIMUM STEPSIZE WHICH MEETS STABILITY CRITERION OF THE SINK & SOURCE TERM
 =  12.19    (WHEN MIN. R.F.=1)  AT K=  17, I=   1, J=  91

 MAXIMUM STEPSIZE WHICH MEETS STABILITY CRITERION OF THE DISPERSION TERM
 =  4.391    (WHEN MIN. R.F.=1)  AT K=  17, I=   1, J=  90
     1 CALLS TO GCG PACKAGE FOR TRANSPORT TIME STEP  52 IN FLOW TIME STEP   1 STRESS PERIOD   1
     7 TOTAL ITERATIONS
     1 CALLS TO GCG PACKAGE FOR TRANSPORT TIME STEP  52 IN FLOW TIME STEP   1 STRESS PERIOD   1
     9 TOTAL ITERATIONS
 
 SOLVING FOR HEAD 


     2 CALLS TO PCG ROUTINE FOR TIME STEP   1 IN STRESS PERIOD    1
     9 TOTAL ITERATIONS

 MAXIMUM HEAD CHANGE FOR EACH ITERATION (1 INDICATES THE FIRST INNER ITERATION):

    HEAD CHANGE    HEAD CHANGE    HEAD CHANGE    HEAD CHANGE    HEAD CHANGE 
   LAYER,ROW,COL  LAYER,ROW,COL  LAYER,ROW,COL  LAYER,ROW,COL  LAYER,ROW,COL
 ---------------------------------------------------------------------------
  1  0.1374E-01  0 -0.4147E-02  0 -0.3923E-02  0  0.1224E-01  0 -0.1028E-01
   ( 15,  1, 86)  ( 17,  1, 89)  (  8,  1, 12)  ( 11,  1, 62)  ( 11,  1, 62)
  0 -0.3164E-02  0  0.1107E-02  0 -0.5224E-03  1  0.3494E-03
   ( 11,  1, 50)  ( 11,  1, 50)  ( 11,  1, 57)  ( 11,  1, 41)

 MAXIMUM RESIDUAL FOR EACH ITERATION (1 INDICATES THE FIRST INNER ITERATION):

    RESIDUAL       RESIDUAL       RESIDUAL       RESIDUAL       RESIDUAL    
   LAYER,ROW,COL  LAYER,ROW,COL  LAYER,ROW,COL  LAYER,ROW,COL  LAYER,ROW,COL
 ---------------------------------------------------------------------------
  1  0.1381E+06  0 -0.9826E+05  0 -0.9743E+05  0 -0.4415E+05  0   5270.    
   ( 21,  1, 89)  ( 19,  1, 89)  ( 19,  1, 89)  ( 19,  1, 89)  ( 17,  1, 88)
  0   2760.      0   2559.      0   1065.      1   959.2    
   ( 22,  1, 87)  ( 22,  1, 87)  ( 22,  1, 87)  ( 22,  1, 87)


 FLOW MODEL IS TRANSIENT
 FLOW MODEL CONTAINS CONSTANT-HEAD CELLS


 MAXIMUM STEPSIZE DURING WHICH ANY PARTICLE CANNOT MOVE MORE THAN ONE CELL
 =  12.88    (WHEN MIN. R.F.=1)  AT K=  17, I=   1, J=  90

 MAXIMUM STEPSIZE WHICH MEETS STABILITY CRITERION OF THE ADVECTION TERM
 (FOR PURE FINITE-DIFFERENCE OPTION, MIXELM=0) 
 =  8.050    (WHEN MIN. R.F.=1)  AT K=  16, I=   1, J=  90


 TOTAL NUMBER OF POINT SOURCES/SINKS PRESENT IN THE FLOW MODEL =    30

 MAXIMUM STEPSIZE WHICH MEETS STABILITY CRITERION OF THE SINK & SOURCE TERM
 =  12.26    (WHEN MIN. R.F.=1)  AT K=  17, I=   1, J=  91

 MAXIMUM STEPSIZE WHICH MEETS STABILITY CRITERION OF THE DISPERSION TERM
 =  4.038    (WHEN MIN. R.F.=1)  AT K=  17, I=   1, J=  90
     1 CALLS TO GCG PACKAGE FOR TRANSPORT TIME STEP  53 IN FLOW TIME STEP   1 STRESS PERIOD   1
     8 TOTAL ITERATIONS
     1 CALLS TO GCG PACKAGE FOR TRANSPORT TIME STEP  53 IN FLOW TIME STEP   1 STRESS PERIOD   1
    10 TOTAL ITERATIONS
 
 SOLVING FOR HEAD 


     2 CALLS TO PCG ROUTINE FOR TIME STEP   1 IN STRESS PERIOD    1
     9 TOTAL ITERATIONS

 MAXIMUM HEAD CHANGE FOR EACH ITERATION (1 INDICATES THE FIRST INNER ITERATION):

    HEAD CHANGE    HEAD CHANGE    HEAD CHANGE    HEAD CHANGE    HEAD CHANGE 
   LAYER,ROW,COL  LAYER,ROW,COL  LAYER,ROW,COL  LAYER,ROW,COL  LAYER,ROW,COL
 ---------------------------------------------------------------------------
  1 -0.1375E-01  0  0.4149E-02  0  0.3940E-02  0  0.7975E-02  0 -0.8132E-02
   ( 15,  1, 86)  ( 17,  1, 89)  (  8,  1, 12)  ( 10,  1, 47)  (  8,  1, 47)
  0  0.1131E-02  0  0.1182E-02  0  0.9388E-03  1 -0.7401E-03
   ( 11,  1, 68)  ( 11,  1, 70)  ( 11,  1, 59)  ( 11,  1, 70)

 MAXIMUM RESIDUAL FOR EACH ITERATION (1 INDICATES THE FIRST INNER ITERATION):

    RESIDUAL       RESIDUAL       RESIDUAL       RESIDUAL       RESIDUAL    
   LAYER,ROW,COL  LAYER,ROW,COL  LAYER,ROW,COL  LAYER,ROW,COL  LAYER,ROW,COL
 ---------------------------------------------------------------------------
  1 -0.1386E+06  0  0.9848E+05  0  0.9766E+05  0  0.3136E+05  0   5851.    
   ( 21,  1, 89)  ( 19,  1, 89)  ( 19,  1, 89)  ( 19,  1, 89)  ( 17,  1, 87)
  0  -2841.      0  -2258.      0  -745.4      1  -618.5    
   ( 22,  1, 87)  ( 22,  1, 87)  ( 22,  1, 87)  ( 22,  1, 87)


 FLOW MODEL IS TRANSIENT
 FLOW MODEL CONTAINS CONSTANT-HEAD CELLS


 MAXIMUM STEPSIZE DURING WHICH ANY PARTICLE CANNOT MOVE MORE THAN ONE CELL
 =  13.23    (WHEN MIN. R.F.=1)  AT K=  17, I=   1, J=  90

 MAXIMUM STEPSIZE WHICH MEETS STABILITY CRITERION OF THE ADVECTION TERM
 (FOR PURE FINITE-DIFFERENCE OPTION, MIXELM=0) 
 =  8.003    (WHEN MIN. R.F.=1)  AT K=  16, I=   1, J=  90


 TOTAL NUMBER OF POINT SOURCES/SINKS PRESENT IN THE FLOW MODEL =    30

 MAXIMUM STEPSIZE WHICH MEETS STABILITY CRITERION OF THE SINK & SOURCE TERM
 =  12.18    (WHEN MIN. R.F.=1)  AT K=  17, I=   1, J=  91

 MAXIMUM STEPSIZE WHICH MEETS STABILITY CRITERION OF THE DISPERSION TERM
 =  4.385    (WHEN MIN. R.F.=1)  AT K=  17, I=   1, J=  90
     1 CALLS TO GCG PACKAGE FOR TRANSPORT TIME STEP  54 IN FLOW TIME STEP   1 STRESS PERIOD   1
     9 TOTAL ITERATIONS
     1 CALLS TO GCG PACKAGE FOR TRANSPORT TIME STEP  54 IN FLOW TIME STEP   1 STRESS PERIOD   1
     9 TOTAL ITERATIONS
 
 SOLVING FOR HEAD 


     2 CALLS TO PCG ROUTINE FOR TIME STEP   1 IN STRESS PERIOD    1
     9 TOTAL ITERATIONS

 MAXIMUM HEAD CHANGE FOR EACH ITERATION (1 INDICATES THE FIRST INNER ITERATION):

    HEAD CHANGE    HEAD CHANGE    HEAD CHANGE    HEAD CHANGE    HEAD CHANGE 
   LAYER,ROW,COL  LAYER,ROW,COL  LAYER,ROW,COL  LAYER,ROW,COL  LAYER,ROW,COL
 ---------------------------------------------------------------------------
  1  0.1344E-01  0 -0.3787E-02  0 -0.2453E-02  0  0.8853E-02  0 -0.9773E-02
   ( 15,  1, 86)  ( 17,  1, 89)  (  8,  1, 12)  ( 11,  1, 59)  ( 11,  1, 59)
  0  0.2049E-02  0 -0.1429E-02  0 -0.5336E-03  1  0.4910E-03
   ( 11,  1, 59)  ( 11,  1, 67)  ( 11,  1, 39)  ( 11,  1, 67)

 MAXIMUM RESIDUAL FOR EACH ITERATION (1 INDICATES THE FIRST INNER ITERATION):

    RESIDUAL       RESIDUAL       RESIDUAL       RESIDUAL       RESIDUAL    
   LAYER,ROW,COL  LAYER,ROW,COL  LAYER,ROW,COL  LAYER,ROW,COL  LAYER,ROW,COL
 ---------------------------------------------------------------------------
  1  0.1363E+06  0 -0.9617E+05  0 -0.9366E+05  0 -0.2054E+05  0  -4974.    
   ( 21,  1, 89)  ( 19,  1, 89)  ( 19,  1, 89)  ( 19,  1, 89)  ( 17,  1, 87)
  0   2877.      0   2131.      0   798.9      1   683.1    
   ( 22,  1, 87)  ( 22,  1, 87)  ( 22,  1, 87)  ( 22,  1, 87)


 FLOW MODEL IS TRANSIENT
 FLOW MODEL CONTAINS CONSTANT-HEAD CELLS


 MAXIMUM STEPSIZE DURING WHICH ANY PARTICLE CANNOT MOVE MORE THAN ONE CELL
 =  12.84    (WHEN MIN. R.F.=1)  AT K=  17, I=   1, J=  90

 MAXIMUM STEPSIZE WHICH MEETS STABILITY CRITERION OF THE ADVECTION TERM
 (FOR PURE FINITE-DIFFERENCE OPTION, MIXELM=0) 
 =  8.028    (WHEN MIN. R.F.=1)  AT K=  16, I=   1, J=  90


 TOTAL NUMBER OF POINT SOURCES/SINKS PRESENT IN THE FLOW MODEL =    30

 MAXIMUM STEPSIZE WHICH MEETS STABILITY CRITERION OF THE SINK & SOURCE TERM
 =  12.19    (WHEN MIN. R.F.=1)  AT K=  17, I=   1, J=  91

 MAXIMUM STEPSIZE WHICH MEETS STABILITY CRITERION OF THE DISPERSION TERM
 =  4.023    (WHEN MIN. R.F.=1)  AT K=  17, I=   1, J=  90
     1 CALLS TO GCG PACKAGE FOR TRANSPORT TIME STEP  55 IN FLOW TIME STEP   1 STRESS PERIOD   1
     8 TOTAL ITERATIONS
  MAXIMUM CONCENTRATION CHANGES FOR EACH ITERATION:
  MAX. CHANGE LAYER,ROW,COL MAX. CHANGE LAYER,ROW,COL MAX. CHANGE LAYER,ROW,COL MAX. CHANGE LAYER,ROW,COL MAX. CHANGE LAYER,ROW,COL
 ------------------------------------------------------------------------------------------------------------------------------------
   0.5275E-01 ( 20,  1, 87)  0.4259E-02 ( 19,  1, 89)  0.2163E-02 ( 17,  1, 86)  0.4875E-03 ( 20,  1, 89)  0.9649E-04 ( 16,  1, 89)
   0.2028E-04 ( 20,  1, 89)  0.1956E-04 ( 16,  1, 90)  0.7506E-06 ( 17,  1, 90)
     1 CALLS TO GCG PACKAGE FOR TRANSPORT TIME STEP  55 IN FLOW TIME STEP   1 STRESS PERIOD   1
    10 TOTAL ITERATIONS
  MAXIMUM CONCENTRATION CHANGES FOR EACH ITERATION:
  MAX. CHANGE LAYER,ROW,COL MAX. CHANGE LAYER,ROW,COL MAX. CHANGE LAYER,ROW,COL MAX. CHANGE LAYER,ROW,COL MAX. CHANGE LAYER,ROW,COL
 ------------------------------------------------------------------------------------------------------------------------------------
   0.7112E-01 ( 19,  1, 89)  0.1308E-01 ( 20,  1, 87)  0.1953E-02 ( 17,  1, 83)  0.4784E-03 ( 17,  1, 90)  0.8195E-04 ( 23,  1, 86)
   0.2323E-04 ( 23,  1, 86)  0.2154E-04 ( 16,  1, 89)  0.6617E-05 ( 17,  1, 87)  0.1027E-05 ( 17,  1, 90)  0.7137E-06 ( 17,  1, 90)
 
 SOLVING FOR HEAD 


     2 CALLS TO PCG ROUTINE FOR TIME STEP   1 IN STRESS PERIOD    1
     9 TOTAL ITERATIONS

 MAXIMUM HEAD CHANGE FOR EACH ITERATION (1 INDICATES THE FIRST INNER ITERATION):

    HEAD CHANGE    HEAD CHANGE    HEAD CHANGE    HEAD CHANGE    HEAD CHANGE 
   LAYER,ROW,COL  LAYER,ROW,COL  LAYER,ROW,COL  LAYER,ROW,COL  LAYER,ROW,COL
 ---------------------------------------------------------------------------
  1 -0.1352E-01  0  0.3776E-02  0  0.2643E-02  0  0.8637E-02  0 -0.8528E-02
   ( 15,  1, 86)  ( 17,  1, 89)  (  8,  1, 12)  (  7,  1, 48)  (  7,  1, 48)
  0 -0.1684E-02  0  0.1601E-02  0  0.8645E-03  1 -0.7859E-03
   ( 11,  1, 70)  ( 11,  1, 70)  ( 11,  1, 58)  ( 11,  1, 70)

 MAXIMUM RESIDUAL FOR EACH ITERATION (1 INDICATES THE FIRST INNER ITERATION):

    RESIDUAL       RESIDUAL       RESIDUAL       RESIDUAL       RESIDUAL    
   LAYER,ROW,COL  LAYER,ROW,COL  LAYER,ROW,COL  LAYER,ROW,COL  LAYER,ROW,COL
 ---------------------------------------------------------------------------
  1 -0.1354E+06  0  0.9543E+05  0  0.9425E+05  0  0.3913E+05  0   6073.    
   ( 21,  1, 89)  ( 19,  1, 89)  ( 19,  1, 89)  ( 19,  1, 89)  ( 17,  1, 87)
  0  -2832.      0  -2381.      0  -836.0      1  -713.4    
   ( 22,  1, 87)  ( 22,  1, 87)  ( 22,  1, 87)  ( 22,  1, 87)


 FLOW MODEL IS TRANSIENT
 FLOW MODEL CONTAINS CONSTANT-HEAD CELLS


 MAXIMUM STEPSIZE DURING WHICH ANY PARTICLE CANNOT MOVE MORE THAN ONE CELL
 =  13.21    (WHEN MIN. R.F.=1)  AT K=  17, I=   1, J=  90

 MAXIMUM STEPSIZE WHICH MEETS STABILITY CRITERION OF THE ADVECTION TERM
 (FOR PURE FINITE-DIFFERENCE OPTION, MIXELM=0) 
 =  7.997    (WHEN MIN. R.F.=1)  AT K=  16, I=   1, J=  90


 TOTAL NUMBER OF POINT SOURCES/SINKS PRESENT IN THE FLOW MODEL =    30

 MAXIMUM STEPSIZE WHICH MEETS STABILITY CRITERION OF THE SINK & SOURCE TERM
 =  12.16    (WHEN MIN. R.F.=1)  AT K=  17, I=   1, J=  91

 MAXIMUM STEPSIZE WHICH MEETS STABILITY CRITERION OF THE DISPERSION TERM
 =  4.366    (WHEN MIN. R.F.=1)  AT K=  17, I=   1, J=  90
     1 CALLS TO GCG PACKAGE FOR TRANSPORT TIME STEP  56 IN FLOW TIME STEP   1 STRESS PERIOD   1
     9 TOTAL ITERATIONS
     1 CALLS TO GCG PACKAGE FOR TRANSPORT TIME STEP  56 IN FLOW TIME STEP   1 STRESS PERIOD   1
     9 TOTAL ITERATIONS
 
 SOLVING FOR HEAD 


     2 CALLS TO PCG ROUTINE FOR TIME STEP   1 IN STRESS PERIOD    1
     9 TOTAL ITERATIONS

 MAXIMUM HEAD CHANGE FOR EACH ITERATION (1 INDICATES THE FIRST INNER ITERATION):

    HEAD CHANGE    HEAD CHANGE    HEAD CHANGE    HEAD CHANGE    HEAD CHANGE 
   LAYER,ROW,COL  LAYER,ROW,COL  LAYER,ROW,COL  LAYER,ROW,COL  LAYER,ROW,COL
 ---------------------------------------------------------------------------
  1  0.1355E-01  0 -0.3707E-02  0 -0.2407E-02  0  0.1138E-01  0 -0.1160E-01
   ( 15,  1, 86)  ( 17,  1, 89)  (  8,  1, 12)  ( 11,  1, 60)  ( 11,  1, 60)
  0  0.2100E-02  0 -0.1352E-02  0 -0.5706E-03  1  0.2781E-03
   ( 11,  1, 58)  ( 11,  1, 66)  ( 11,  1, 39)  ( 11,  1, 66)

 MAXIMUM RESIDUAL FOR EACH ITERATION (1 INDICATES THE FIRST INNER ITERATION):

    RESIDUAL       RESIDUAL       RESIDUAL       RESIDUAL       RESIDUAL    
   LAYER,ROW,COL  LAYER,ROW,COL  LAYER,ROW,COL  LAYER,ROW,COL  LAYER,ROW,COL
 ---------------------------------------------------------------------------
  1  0.1322E+06  0 -0.9236E+05  0 -0.9100E+05  0 -0.2328E+05  0  -5083.    
   ( 21,  1, 89)  ( 19,  1, 89)  ( 19,  1, 89)  ( 19,  1, 89)  ( 17,  1, 87)
  0   2899.      0   2098.      0   748.5      1   659.0    
   ( 22,  1, 87)  ( 22,  1, 87)  ( 22,  1, 87)  ( 22,  1, 87)


 FLOW MODEL IS TRANSIENT
 FLOW MODEL CONTAINS CONSTANT-HEAD CELLS


 MAXIMUM STEPSIZE DURING WHICH ANY PARTICLE CANNOT MOVE MORE THAN ONE CELL
 =  12.85    (WHEN MIN. R.F.=1)  AT K=  17, I=   1, J=  90

 MAXIMUM STEPSIZE WHICH MEETS STABILITY CRITERION OF THE ADVECTION TERM
 (FOR PURE FINITE-DIFFERENCE OPTION, MIXELM=0) 
 =  8.028    (WHEN MIN. R.F.=1)  AT K=  16, I=   1, J=  90


 TOTAL NUMBER OF POINT SOURCES/SINKS PRESENT IN THE FLOW MODEL =    30

 MAXIMUM STEPSIZE WHICH MEETS STABILITY CRITERION OF THE SINK & SOURCE TERM
 =  12.19    (WHEN MIN. R.F.=1)  AT K=  17, I=   1, J=  91

 MAXIMUM STEPSIZE WHICH MEETS STABILITY CRITERION OF THE DISPERSION TERM
 =  4.030    (WHEN MIN. R.F.=1)  AT K=  17, I=   1, J=  90
     1 CALLS TO GCG PACKAGE FOR TRANSPORT TIME STEP  57 IN FLOW TIME STEP   1 STRESS PERIOD   1
     8 TOTAL ITERATIONS
     1 CALLS TO GCG PACKAGE FOR TRANSPORT TIME STEP  57 IN FLOW TIME STEP   1 STRESS PERIOD   1
     9 TOTAL ITERATIONS
 
 SOLVING FOR HEAD 


     3 CALLS TO PCG ROUTINE FOR TIME STEP   1 IN STRESS PERIOD    1
    11 TOTAL ITERATIONS

 MAXIMUM HEAD CHANGE FOR EACH ITERATION (1 INDICATES THE FIRST INNER ITERATION):

    HEAD CHANGE    HEAD CHANGE    HEAD CHANGE    HEAD CHANGE    HEAD CHANGE 
   LAYER,ROW,COL  LAYER,ROW,COL  LAYER,ROW,COL  LAYER,ROW,COL  LAYER,ROW,COL
 ---------------------------------------------------------------------------
  1 -0.1347E-01  0  0.3681E-02  0  0.3341E-02  0  0.6908E-02  0 -0.8845E-02
   ( 15,  1, 86)  ( 17,  1, 89)  (  7,  1, 12)  (  8,  1, 47)  (  7,  1, 46)
  0 -0.1388E-02  0  0.1188E-02  0  0.8906E-03  1 -0.1124E-02  0 -0.2285E-03
   ( 11,  1, 51)  ( 11,  1, 51)  ( 11,  1, 70)  ( 11,  1, 70)  ( 11,  1, 55)
  1  0.7982E-04
   ( 11,  1, 53)

 MAXIMUM RESIDUAL FOR EACH ITERATION (1 INDICATES THE FIRST INNER ITERATION):

    RESIDUAL       RESIDUAL       RESIDUAL       RESIDUAL       RESIDUAL    
   LAYER,ROW,COL  LAYER,ROW,COL  LAYER,ROW,COL  LAYER,ROW,COL  LAYER,ROW,COL
 ---------------------------------------------------------------------------
  1 -0.1338E+06  0  0.9442E+05  0  0.8669E+05  0  0.3469E+05  0   6027.    
   ( 21,  1, 89)  ( 19,  1, 89)  ( 19,  1, 89)  ( 19,  1, 89)  ( 17,  1, 87)
  0  -2852.      0  -2343.      0  -919.6      1  -756.2      0  -620.9    
   ( 22,  1, 87)  ( 22,  1, 87)  ( 22,  1, 87)  ( 22,  1, 87)  ( 22,  1, 87)
  1  -577.0    
   ( 22,  1, 87)


 FLOW MODEL IS TRANSIENT
 FLOW MODEL CONTAINS CONSTANT-HEAD CELLS


 MAXIMUM STEPSIZE DURING WHICH ANY PARTICLE CANNOT MOVE MORE THAN ONE CELL
 =  13.20    (WHEN MIN. R.F.=1)  AT K=  17, I=   1, J=  90

 MAXIMUM STEPSIZE WHICH MEETS STABILITY CRITERION OF THE ADVECTION TERM
 (FOR PURE FINITE-DIFFERENCE OPTION, MIXELM=0) 
 =  7.994    (WHEN MIN. R.F.=1)  AT K=  16, I=   1, J=  90


 TOTAL NUMBER OF POINT SOURCES/SINKS PRESENT IN THE FLOW MODEL =    30

 MAXIMUM STEPSIZE WHICH MEETS STABILITY CRITERION OF THE SINK & SOURCE TERM
 =  12.15    (WHEN MIN. R.F.=1)  AT K=  17, I=   1, J=  91

 MAXIMUM STEPSIZE WHICH MEETS STABILITY CRITERION OF THE DISPERSION TERM
 =  4.356    (WHEN MIN. R.F.=1)  AT K=  17, I=   1, J=  90
     1 CALLS TO GCG PACKAGE FOR TRANSPORT TIME STEP  58 IN FLOW TIME STEP   1 STRESS PERIOD   1
     9 TOTAL ITERATIONS
     1 CALLS TO GCG PACKAGE FOR TRANSPORT TIME STEP  58 IN FLOW TIME STEP   1 STRESS PERIOD   1
     9 TOTAL ITERATIONS
 
 SOLVING FOR HEAD 


     2 CALLS TO PCG ROUTINE FOR TIME STEP   1 IN STRESS PERIOD    1
     8 TOTAL ITERATIONS

 MAXIMUM HEAD CHANGE FOR EACH ITERATION (1 INDICATES THE FIRST INNER ITERATION):

    HEAD CHANGE    HEAD CHANGE    HEAD CHANGE    HEAD CHANGE    HEAD CHANGE 
   LAYER,ROW,COL  LAYER,ROW,COL  LAYER,ROW,COL  LAYER,ROW,COL  LAYER,ROW,COL
 ---------------------------------------------------------------------------
  1  0.1357E-01  0 -0.2011E-01  0  0.1760E-01  0 -0.2278E-02  0  0.1908E-02
   ( 15,  1, 86)  (  8,  1, 12)  (  8,  1, 12)  ( 15,  1, 87)  (  9,  1, 42)
  0 -0.1029E-02  0 -0.7900E-03  1  0.6156E-03
   (  9,  1, 43)  ( 11,  1, 70)  ( 11,  1, 70)

 MAXIMUM RESIDUAL FOR EACH ITERATION (1 INDICATES THE FIRST INNER ITERATION):

    RESIDUAL       RESIDUAL       RESIDUAL       RESIDUAL       RESIDUAL    
   LAYER,ROW,COL  LAYER,ROW,COL  LAYER,ROW,COL  LAYER,ROW,COL  LAYER,ROW,COL
 ---------------------------------------------------------------------------
  1  0.1321E+06  0  0.9903E+05  0 -0.9115E+05  0 -0.1184E+05  0   3162.    
   ( 21,  1, 89)  ( 21,  1, 89)  ( 19,  1, 89)  ( 17,  1, 87)  ( 22,  1, 87)
  0   2879.      0   1437.      1   1243.    
   ( 22,  1, 87)  ( 22,  1, 87)  ( 22,  1, 87)


 FLOW MODEL IS TRANSIENT
 FLOW MODEL CONTAINS CONSTANT-HEAD CELLS


 MAXIMUM STEPSIZE DURING WHICH ANY PARTICLE CANNOT MOVE MORE THAN ONE CELL
 =  12.84    (WHEN MIN. R.F.=1)  AT K=  17, I=   1, J=  90

 MAXIMUM STEPSIZE WHICH MEETS STABILITY CRITERION OF THE ADVECTION TERM
 (FOR PURE FINITE-DIFFERENCE OPTION, MIXELM=0) 
 =  8.024    (WHEN MIN. R.F.=1)  AT K=  16, I=   1, J=  90


 TOTAL NUMBER OF POINT SOURCES/SINKS PRESENT IN THE FLOW MODEL =    30

 MAXIMUM STEPSIZE WHICH MEETS STABILITY CRITERION OF THE SINK & SOURCE TERM
 =  12.19    (WHEN MIN. R.F.=1)  AT K=  17, I=   1, J=  91

 MAXIMUM STEPSIZE WHICH MEETS STABILITY CRITERION OF THE DISPERSION TERM
 =  4.028    (WHEN MIN. R.F.=1)  AT K=  17, I=   1, J=  90
     1 CALLS TO GCG PACKAGE FOR TRANSPORT TIME STEP  59 IN FLOW TIME STEP   1 STRESS PERIOD   1
     8 TOTAL ITERATIONS
     1 CALLS TO GCG PACKAGE FOR TRANSPORT TIME STEP  59 IN FLOW TIME STEP   1 STRESS PERIOD   1
    11 TOTAL ITERATIONS
 
 SOLVING FOR HEAD 


     2 CALLS TO PCG ROUTINE FOR TIME STEP   1 IN STRESS PERIOD    1
     8 TOTAL ITERATIONS

 MAXIMUM HEAD CHANGE FOR EACH ITERATION (1 INDICATES THE FIRST INNER ITERATION):

    HEAD CHANGE    HEAD CHANGE    HEAD CHANGE    HEAD CHANGE    HEAD CHANGE 
   LAYER,ROW,COL  LAYER,ROW,COL  LAYER,ROW,COL  LAYER,ROW,COL  LAYER,ROW,COL
 ---------------------------------------------------------------------------
  1 -0.1353E-01  0  0.3775E-02  0  0.2379E-02  0 -0.1067E-01  0  0.9510E-02
   ( 15,  1, 86)  ( 17,  1, 89)  (  8,  1, 12)  ( 11,  1, 50)  ( 11,  1, 50)
  0 -0.1451E-02  0 -0.7803E-03  1  0.6715E-03
   ( 11,  1, 27)  ( 10,  1, 37)  ( 11,  1, 53)

 MAXIMUM RESIDUAL FOR EACH ITERATION (1 INDICATES THE FIRST INNER ITERATION):

    RESIDUAL       RESIDUAL       RESIDUAL       RESIDUAL       RESIDUAL    
   LAYER,ROW,COL  LAYER,ROW,COL  LAYER,ROW,COL  LAYER,ROW,COL  LAYER,ROW,COL
 ---------------------------------------------------------------------------
  1 -0.1333E+06  0  0.9409E+05  0  0.9216E+05  0  0.5098E+05  0   6001.    
   ( 21,  1, 89)  ( 19,  1, 89)  ( 19,  1, 89)  ( 19,  1, 89)  ( 17,  1, 87)
  0  -2817.      0  -2609.      1  -1824.    
   ( 22,  1, 87)  ( 22,  1, 87)  ( 22,  1, 87)


 FLOW MODEL IS TRANSIENT
 FLOW MODEL CONTAINS CONSTANT-HEAD CELLS


 MAXIMUM STEPSIZE DURING WHICH ANY PARTICLE CANNOT MOVE MORE THAN ONE CELL
 =  13.17    (WHEN MIN. R.F.=1)  AT K=  17, I=   1, J=  90

 MAXIMUM STEPSIZE WHICH MEETS STABILITY CRITERION OF THE ADVECTION TERM
 (FOR PURE FINITE-DIFFERENCE OPTION, MIXELM=0) 
 =  7.984    (WHEN MIN. R.F.=1)  AT K=  16, I=   1, J=  90


 TOTAL NUMBER OF POINT SOURCES/SINKS PRESENT IN THE FLOW MODEL =    30

 MAXIMUM STEPSIZE WHICH MEETS STABILITY CRITERION OF THE SINK & SOURCE TERM
 =  12.12    (WHEN MIN. R.F.=1)  AT K=  17, I=   1, J=  91

 MAXIMUM STEPSIZE WHICH MEETS STABILITY CRITERION OF THE DISPERSION TERM
 =  4.341    (WHEN MIN. R.F.=1)  AT K=  17, I=   1, J=  90
     1 CALLS TO GCG PACKAGE FOR TRANSPORT TIME STEP  60 IN FLOW TIME STEP   1 STRESS PERIOD   1
     8 TOTAL ITERATIONS
  MAXIMUM CONCENTRATION CHANGES FOR EACH ITERATION:
  MAX. CHANGE LAYER,ROW,COL MAX. CHANGE LAYER,ROW,COL MAX. CHANGE LAYER,ROW,COL MAX. CHANGE LAYER,ROW,COL MAX. CHANGE LAYER,ROW,COL
 ------------------------------------------------------------------------------------------------------------------------------------
   0.4895E-01 ( 20,  1, 87)  0.3304E-02 ( 19,  1, 87)  0.2162E-02 ( 18,  1, 87)  0.2161E-03 ( 16,  1, 88)  0.1458E-03 ( 16,  1, 89)
   0.2744E-04 ( 16,  1, 90)  0.3652E-05 ( 21,  1, 78)  0.4987E-06 ( 16,  1, 89)
     1 CALLS TO GCG PACKAGE FOR TRANSPORT TIME STEP  60 IN FLOW TIME STEP   1 STRESS PERIOD   1
     9 TOTAL ITERATIONS
  MAXIMUM CONCENTRATION CHANGES FOR EACH ITERATION:
  MAX. CHANGE LAYER,ROW,COL MAX. CHANGE LAYER,ROW,COL MAX. CHANGE LAYER,ROW,COL MAX. CHANGE LAYER,ROW,COL MAX. CHANGE LAYER,ROW,COL
 ------------------------------------------------------------------------------------------------------------------------------------
   0.6327E-01 ( 19,  1, 88)  0.1138E-01 ( 20,  1, 87)  0.1747E-02 ( 17,  1, 84)  0.4195E-03 ( 23,  1, 87)  0.5544E-04 ( 18,  1, 87)
   0.6310E-04 ( 17,  1, 87)  0.6158E-05 ( 16,  1, 89)  0.2666E-05 ( 16,  1, 89)  0.6596E-06 ( 17,  1, 90)



 >>>>>>>>>>>>>>>>>>>>>>>>>>>>>>>>>>>>>>>>>>>>>>>>>>>>>>>FOR COMPONENT NO. 01<<<<<<<<<<<<<<<<<<<<<<<<<<<<<<<<<<<<<<<<<<<<<<<<<<<<<<<


                                            -------------------------------------------
                                                      TRANSPORT STEP NO.   60
                                            -------------------------------------------

 TOTAL ELAPSED TIME SINCE BEGINNING OF SIMULATION =   3000.000    D   
 .....................................................................

                     CUMMULATIVE MASS BUDGETS AT END OF TRANSPORT STEP   60, TIME STEP    1, STRESS PERIOD    1
                     ------------------------------------------------------------------------------------------

                                                             IN                           OUT
                                                      ----------------             ----------------
                               CONSTANT CONCENTRATION:    0.000000                    0.000000    
                                        CONSTANT HEAD:   0.1188998E+09              -0.1187859E+09
                                                WELLS:    0.000000                    0.000000    
                                             RECHARGE:    0.000000                    0.000000    
                               1ST/0TH ORDER REACTION:    0.000000                    0.000000    
                                MASS STORAGE (SOLUTE):   0.1667196E+08              -0.1678588E+08
                            ---------------------------------------------------------------------------
                                              [TOTAL]:   0.1355719E+09 KG           -0.1355719E+09 KG  

                                                          NET (IN - OUT):   -17.65910    
                                                   DISCREPANCY (PERCENT):  -0.1302564E-04



 >>>>>>>>>>>>>>>>>>>>>>>>>>>>>>>>>>>>>>>>>>>>>>>>>>>>>>>FOR COMPONENT NO. 02<<<<<<<<<<<<<<<<<<<<<<<<<<<<<<<<<<<<<<<<<<<<<<<<<<<<<<<


                                            -------------------------------------------
                                                      TRANSPORT STEP NO.   60
                                            -------------------------------------------

 TOTAL ELAPSED TIME SINCE BEGINNING OF SIMULATION =   3000.000    D   
 .....................................................................

                     CUMMULATIVE MASS BUDGETS AT END OF TRANSPORT STEP   60, TIME STEP    1, STRESS PERIOD    1
                     ------------------------------------------------------------------------------------------

                                                             IN                           OUT
                                                      ----------------             ----------------
                               CONSTANT CONCENTRATION:    0.000000                    0.000000    
                                        CONSTANT HEAD:    0.000000                  -0.3793465E+10
                                                WELLS:    0.000000                    0.000000    
                                             RECHARGE:    0.000000                    0.000000    
                               1ST/0TH ORDER REACTION:   0.4965000E+11                0.000000    
                                MASS STORAGE (SOLUTE):   0.3282897E+09              -0.4618483E+11
                            ---------------------------------------------------------------------------
                                              [TOTAL]:   0.4997830E+11 KG           -0.4997830E+11 KG  

                                                          NET (IN - OUT):    118.2733    
                                                   DISCREPANCY (PERCENT):   0.2366492E-06
 
 SOLVING FOR HEAD 


     2 CALLS TO PCG ROUTINE FOR TIME STEP   1 IN STRESS PERIOD    1
    10 TOTAL ITERATIONS

 MAXIMUM HEAD CHANGE FOR EACH ITERATION (1 INDICATES THE FIRST INNER ITERATION):

    HEAD CHANGE    HEAD CHANGE    HEAD CHANGE    HEAD CHANGE    HEAD CHANGE 
   LAYER,ROW,COL  LAYER,ROW,COL  LAYER,ROW,COL  LAYER,ROW,COL  LAYER,ROW,COL
 ---------------------------------------------------------------------------
  1  0.1379E-01  0  0.8581E-02  0 -0.3848E-02  0 -0.9069E-02  0  0.6566E-02
   ( 15,  1, 86)  (  6,  1, 39)  (  7,  1, 12)  (  7,  1, 41)  (  7,  1, 43)
  0  0.3401E-02  0 -0.1362E-02  0 -0.1119E-02  0  0.6252E-03  1  0.3450E-03
   ( 11,  1, 49)  ( 11,  1, 50)  ( 11,  1, 67)  ( 11,  1, 67)  ( 11,  1, 59)

 MAXIMUM RESIDUAL FOR EACH ITERATION (1 INDICATES THE FIRST INNER ITERATION):

    RESIDUAL       RESIDUAL       RESIDUAL       RESIDUAL       RESIDUAL    
   LAYER,ROW,COL  LAYER,ROW,COL  LAYER,ROW,COL  LAYER,ROW,COL  LAYER,ROW,COL
 ---------------------------------------------------------------------------
  1  0.1335E+06  0 -0.9445E+05  0 -0.9363E+05  0 -0.7684E+05  0  -6183.    
   ( 21,  1, 89)  ( 19,  1, 89)  ( 19,  1, 89)  ( 19,  1, 89)  ( 17,  1, 87)
  0   3074.      0   2614.      0   1372.      0   428.9      1   369.6    
   ( 17,  1, 88)  ( 22,  1, 87)  ( 22,  1, 87)  ( 22,  1, 87)  ( 22,  1, 87)


 FLOW MODEL IS TRANSIENT
 FLOW MODEL CONTAINS CONSTANT-HEAD CELLS


 MAXIMUM STEPSIZE DURING WHICH ANY PARTICLE CANNOT MOVE MORE THAN ONE CELL
 =  12.88    (WHEN MIN. R.F.=1)  AT K=  17, I=   1, J=  90

 MAXIMUM STEPSIZE WHICH MEETS STABILITY CRITERION OF THE ADVECTION TERM
 (FOR PURE FINITE-DIFFERENCE OPTION, MIXELM=0) 
 =  8.043    (WHEN MIN. R.F.=1)  AT K=  16, I=   1, J=  90


 TOTAL NUMBER OF POINT SOURCES/SINKS PRESENT IN THE FLOW MODEL =    30

 MAXIMUM STEPSIZE WHICH MEETS STABILITY CRITERION OF THE SINK & SOURCE TERM
 =  12.23    (WHEN MIN. R.F.=1)  AT K=  17, I=   1, J=  91

 MAXIMUM STEPSIZE WHICH MEETS STABILITY CRITERION OF THE DISPERSION TERM
 =  4.039    (WHEN MIN. R.F.=1)  AT K=  17, I=   1, J=  90
     1 CALLS TO GCG PACKAGE FOR TRANSPORT TIME STEP  61 IN FLOW TIME STEP   1 STRESS PERIOD   1
     8 TOTAL ITERATIONS
     1 CALLS TO GCG PACKAGE FOR TRANSPORT TIME STEP  61 IN FLOW TIME STEP   1 STRESS PERIOD   1
    11 TOTAL ITERATIONS
 
 SOLVING FOR HEAD 


     2 CALLS TO PCG ROUTINE FOR TIME STEP   1 IN STRESS PERIOD    1
     8 TOTAL ITERATIONS

 MAXIMUM HEAD CHANGE FOR EACH ITERATION (1 INDICATES THE FIRST INNER ITERATION):

    HEAD CHANGE    HEAD CHANGE    HEAD CHANGE    HEAD CHANGE    HEAD CHANGE 
   LAYER,ROW,COL  LAYER,ROW,COL  LAYER,ROW,COL  LAYER,ROW,COL  LAYER,ROW,COL
 ---------------------------------------------------------------------------
  1 -0.1351E-01  0  0.3804E-02  0  0.2472E-02  0 -0.6763E-02  0  0.8257E-02
   ( 15,  1, 86)  ( 17,  1, 89)  (  8,  1, 12)  ( 11,  1, 58)  ( 11,  1, 58)
  0 -0.2423E-02  0  0.7154E-03  1 -0.4805E-03
   ( 11,  1, 57)  ( 11,  1, 52)  ( 11,  1, 50)

 MAXIMUM RESIDUAL FOR EACH ITERATION (1 INDICATES THE FIRST INNER ITERATION):

    RESIDUAL       RESIDUAL       RESIDUAL       RESIDUAL       RESIDUAL    
   LAYER,ROW,COL  LAYER,ROW,COL  LAYER,ROW,COL  LAYER,ROW,COL  LAYER,ROW,COL
 ---------------------------------------------------------------------------
  1 -0.1325E+06  0  0.9348E+05  0  0.9072E+05  0  0.1654E+05  0   4566.    
   ( 21,  1, 89)  ( 19,  1, 89)  ( 19,  1, 89)  ( 19,  1, 89)  ( 17,  1, 87)
  0  -2858.      0  -2258.      1  -2000.    
   ( 22,  1, 87)  ( 22,  1, 87)  ( 22,  1, 87)


 FLOW MODEL IS TRANSIENT
 FLOW MODEL CONTAINS CONSTANT-HEAD CELLS


 MAXIMUM STEPSIZE DURING WHICH ANY PARTICLE CANNOT MOVE MORE THAN ONE CELL
 =  13.24    (WHEN MIN. R.F.=1)  AT K=  17, I=   1, J=  90

 MAXIMUM STEPSIZE WHICH MEETS STABILITY CRITERION OF THE ADVECTION TERM
 (FOR PURE FINITE-DIFFERENCE OPTION, MIXELM=0) 
 =  8.010    (WHEN MIN. R.F.=1)  AT K=  16, I=   1, J=  90


 TOTAL NUMBER OF POINT SOURCES/SINKS PRESENT IN THE FLOW MODEL =    30

 MAXIMUM STEPSIZE WHICH MEETS STABILITY CRITERION OF THE SINK & SOURCE TERM
 =  12.19    (WHEN MIN. R.F.=1)  AT K=  17, I=   1, J=  91

 MAXIMUM STEPSIZE WHICH MEETS STABILITY CRITERION OF THE DISPERSION TERM
 =  4.375    (WHEN MIN. R.F.=1)  AT K=  17, I=   1, J=  90
     1 CALLS TO GCG PACKAGE FOR TRANSPORT TIME STEP  62 IN FLOW TIME STEP   1 STRESS PERIOD   1
    10 TOTAL ITERATIONS
     1 CALLS TO GCG PACKAGE FOR TRANSPORT TIME STEP  62 IN FLOW TIME STEP   1 STRESS PERIOD   1
     9 TOTAL ITERATIONS
 
 SOLVING FOR HEAD 


     2 CALLS TO PCG ROUTINE FOR TIME STEP   1 IN STRESS PERIOD    1
     8 TOTAL ITERATIONS

 MAXIMUM HEAD CHANGE FOR EACH ITERATION (1 INDICATES THE FIRST INNER ITERATION):

    HEAD CHANGE    HEAD CHANGE    HEAD CHANGE    HEAD CHANGE    HEAD CHANGE 
   LAYER,ROW,COL  LAYER,ROW,COL  LAYER,ROW,COL  LAYER,ROW,COL  LAYER,ROW,COL
 ---------------------------------------------------------------------------
  1  0.1369E-01  0  0.4298E-02  0 -0.4172E-02  0 -0.9876E-02  0  0.8553E-02
   ( 15,  1, 86)  (  6,  1, 52)  (  8,  1, 12)  (  8,  1, 54)  (  7,  1, 53)
  0 -0.1714E-02  0  0.7564E-03  1 -0.5840E-03
   ( 11,  1, 69)  (  7,  1, 35)  ( 11,  1, 50)

 MAXIMUM RESIDUAL FOR EACH ITERATION (1 INDICATES THE FIRST INNER ITERATION):

    RESIDUAL       RESIDUAL       RESIDUAL       RESIDUAL       RESIDUAL    
   LAYER,ROW,COL  LAYER,ROW,COL  LAYER,ROW,COL  LAYER,ROW,COL  LAYER,ROW,COL
 ---------------------------------------------------------------------------
  1  0.1352E+06  0 -0.9566E+05  0 -0.9492E+05  0 -0.5979E+05  0  -5822.    
   ( 21,  1, 89)  ( 19,  1, 89)  ( 19,  1, 89)  ( 19,  1, 89)  ( 17,  1, 87)
  0   2827.      0   2606.      1   1791.    
   ( 22,  1, 87)  ( 22,  1, 87)  ( 22,  1, 87)


 FLOW MODEL IS TRANSIENT
 FLOW MODEL CONTAINS CONSTANT-HEAD CELLS


 MAXIMUM STEPSIZE DURING WHICH ANY PARTICLE CANNOT MOVE MORE THAN ONE CELL
 =  12.89    (WHEN MIN. R.F.=1)  AT K=  17, I=   1, J=  90

 MAXIMUM STEPSIZE WHICH MEETS STABILITY CRITERION OF THE ADVECTION TERM
 (FOR PURE FINITE-DIFFERENCE OPTION, MIXELM=0) 
 =  8.049    (WHEN MIN. R.F.=1)  AT K=  16, I=   1, J=  90


 TOTAL NUMBER OF POINT SOURCES/SINKS PRESENT IN THE FLOW MODEL =    30

 MAXIMUM STEPSIZE WHICH MEETS STABILITY CRITERION OF THE SINK & SOURCE TERM
 =  12.26    (WHEN MIN. R.F.=1)  AT K=  17, I=   1, J=  91

 MAXIMUM STEPSIZE WHICH MEETS STABILITY CRITERION OF THE DISPERSION TERM
 =  4.045    (WHEN MIN. R.F.=1)  AT K=  17, I=   1, J=  90
     1 CALLS TO GCG PACKAGE FOR TRANSPORT TIME STEP  63 IN FLOW TIME STEP   1 STRESS PERIOD   1
     8 TOTAL ITERATIONS
     1 CALLS TO GCG PACKAGE FOR TRANSPORT TIME STEP  63 IN FLOW TIME STEP   1 STRESS PERIOD   1
    10 TOTAL ITERATIONS
 
 SOLVING FOR HEAD 


     2 CALLS TO PCG ROUTINE FOR TIME STEP   1 IN STRESS PERIOD    1
     9 TOTAL ITERATIONS

 MAXIMUM HEAD CHANGE FOR EACH ITERATION (1 INDICATES THE FIRST INNER ITERATION):

    HEAD CHANGE    HEAD CHANGE    HEAD CHANGE    HEAD CHANGE    HEAD CHANGE 
   LAYER,ROW,COL  LAYER,ROW,COL  LAYER,ROW,COL  LAYER,ROW,COL  LAYER,ROW,COL
 ---------------------------------------------------------------------------
  1 -0.1386E-01  0 -0.9384E-02  0  0.6092E-02  0  0.1011E-01  0 -0.6744E-02
   ( 15,  1, 86)  (  7,  1, 36)  (  8,  1, 12)  ( 11,  1, 51)  (  6,  1, 40)
  0 -0.2697E-02  0  0.1150E-02  0  0.9732E-03  1 -0.7158E-03
   ( 11,  1, 41)  ( 11,  1, 49)  ( 11,  1, 70)  ( 11,  1, 70)

 MAXIMUM RESIDUAL FOR EACH ITERATION (1 INDICATES THE FIRST INNER ITERATION):

    RESIDUAL       RESIDUAL       RESIDUAL       RESIDUAL       RESIDUAL    
   LAYER,ROW,COL  LAYER,ROW,COL  LAYER,ROW,COL  LAYER,ROW,COL  LAYER,ROW,COL
 ---------------------------------------------------------------------------
  1 -0.1379E+06  0  0.9748E+05  0  0.9713E+05  0  0.7745E+05  0  -6020.    
   ( 21,  1, 89)  ( 19,  1, 89)  ( 19,  1, 89)  ( 19,  1, 89)  ( 17,  1, 88)
  0  -3103.      0  -2640.      0  -1633.      1  -1458.    
   ( 17,  1, 88)  ( 22,  1, 87)  ( 22,  1, 87)  ( 22,  1, 87)


 FLOW MODEL IS TRANSIENT
 FLOW MODEL CONTAINS CONSTANT-HEAD CELLS


 MAXIMUM STEPSIZE DURING WHICH ANY PARTICLE CANNOT MOVE MORE THAN ONE CELL
 =  13.20    (WHEN MIN. R.F.=1)  AT K=  17, I=   1, J=  90

 MAXIMUM STEPSIZE WHICH MEETS STABILITY CRITERION OF THE ADVECTION TERM
 (FOR PURE FINITE-DIFFERENCE OPTION, MIXELM=0) 
 =  7.988    (WHEN MIN. R.F.=1)  AT K=  16, I=   1, J=  90


 TOTAL NUMBER OF POINT SOURCES/SINKS PRESENT IN THE FLOW MODEL =    30

 MAXIMUM STEPSIZE WHICH MEETS STABILITY CRITERION OF THE SINK & SOURCE TERM
 =  12.14    (WHEN MIN. R.F.=1)  AT K=  17, I=   1, J=  91

 MAXIMUM STEPSIZE WHICH MEETS STABILITY CRITERION OF THE DISPERSION TERM
 =  4.361    (WHEN MIN. R.F.=1)  AT K=  17, I=   1, J=  90
     1 CALLS TO GCG PACKAGE FOR TRANSPORT TIME STEP  64 IN FLOW TIME STEP   1 STRESS PERIOD   1
     9 TOTAL ITERATIONS
     1 CALLS TO GCG PACKAGE FOR TRANSPORT TIME STEP  64 IN FLOW TIME STEP   1 STRESS PERIOD   1
     9 TOTAL ITERATIONS
 
 SOLVING FOR HEAD 


     2 CALLS TO PCG ROUTINE FOR TIME STEP   1 IN STRESS PERIOD    1
     8 TOTAL ITERATIONS

 MAXIMUM HEAD CHANGE FOR EACH ITERATION (1 INDICATES THE FIRST INNER ITERATION):

    HEAD CHANGE    HEAD CHANGE    HEAD CHANGE    HEAD CHANGE    HEAD CHANGE 
   LAYER,ROW,COL  LAYER,ROW,COL  LAYER,ROW,COL  LAYER,ROW,COL  LAYER,ROW,COL
 ---------------------------------------------------------------------------
  1  0.1363E-01  0 -0.4149E-02  0 -0.3481E-02  0  0.1009E-01  0  0.9748E-02
   ( 15,  1, 86)  ( 17,  1, 89)  (  8,  1, 12)  ( 11,  1, 68)  ( 11,  1, 53)
  0  0.1502E-02  0  0.7124E-03  1 -0.5511E-03
   (  9,  1, 54)  ( 11,  1, 40)  ( 11,  1, 40)

 MAXIMUM RESIDUAL FOR EACH ITERATION (1 INDICATES THE FIRST INNER ITERATION):

    RESIDUAL       RESIDUAL       RESIDUAL       RESIDUAL       RESIDUAL    
   LAYER,ROW,COL  LAYER,ROW,COL  LAYER,ROW,COL  LAYER,ROW,COL  LAYER,ROW,COL
 ---------------------------------------------------------------------------
  1  0.1372E+06  0 -0.9841E+05  0 -0.9748E+05  0 -0.2660E+05  0   5596.    
   ( 21,  1, 89)  ( 19,  1, 89)  ( 19,  1, 89)  ( 19,  1, 89)  ( 17,  1, 88)
  0   2761.      0   2493.      1   1973.    
   ( 22,  1, 87)  ( 22,  1, 87)  ( 22,  1, 87)


 FLOW MODEL IS TRANSIENT
 FLOW MODEL CONTAINS CONSTANT-HEAD CELLS


 MAXIMUM STEPSIZE DURING WHICH ANY PARTICLE CANNOT MOVE MORE THAN ONE CELL
 =  12.83    (WHEN MIN. R.F.=1)  AT K=  17, I=   1, J=  90

 MAXIMUM STEPSIZE WHICH MEETS STABILITY CRITERION OF THE ADVECTION TERM
 (FOR PURE FINITE-DIFFERENCE OPTION, MIXELM=0) 
 =  8.029    (WHEN MIN. R.F.=1)  AT K=  16, I=   1, J=  90


 TOTAL NUMBER OF POINT SOURCES/SINKS PRESENT IN THE FLOW MODEL =    30

 MAXIMUM STEPSIZE WHICH MEETS STABILITY CRITERION OF THE SINK & SOURCE TERM
 =  12.19    (WHEN MIN. R.F.=1)  AT K=  17, I=   1, J=  91

 MAXIMUM STEPSIZE WHICH MEETS STABILITY CRITERION OF THE DISPERSION TERM
 =  4.017    (WHEN MIN. R.F.=1)  AT K=  17, I=   1, J=  90
     1 CALLS TO GCG PACKAGE FOR TRANSPORT TIME STEP  65 IN FLOW TIME STEP   1 STRESS PERIOD   1
     8 TOTAL ITERATIONS
  MAXIMUM CONCENTRATION CHANGES FOR EACH ITERATION:
  MAX. CHANGE LAYER,ROW,COL MAX. CHANGE LAYER,ROW,COL MAX. CHANGE LAYER,ROW,COL MAX. CHANGE LAYER,ROW,COL MAX. CHANGE LAYER,ROW,COL
 ------------------------------------------------------------------------------------------------------------------------------------
   0.5205E-01 ( 20,  1, 87)  0.4300E-02 ( 19,  1, 89)  0.2103E-02 ( 17,  1, 86)  0.4844E-03 ( 20,  1, 89)  0.9589E-04 ( 16,  1, 89)
   0.2213E-04 ( 20,  1, 89)  0.2185E-04 ( 16,  1, 90)  0.5983E-06 ( 17,  1, 90)
     1 CALLS TO GCG PACKAGE FOR TRANSPORT TIME STEP  65 IN FLOW TIME STEP   1 STRESS PERIOD   1
    10 TOTAL ITERATIONS
  MAXIMUM CONCENTRATION CHANGES FOR EACH ITERATION:
  MAX. CHANGE LAYER,ROW,COL MAX. CHANGE LAYER,ROW,COL MAX. CHANGE LAYER,ROW,COL MAX. CHANGE LAYER,ROW,COL MAX. CHANGE LAYER,ROW,COL
 ------------------------------------------------------------------------------------------------------------------------------------
   0.6989E-01 ( 19,  1, 89)  0.1218E-01 ( 20,  1, 87)  0.1708E-02 ( 23,  1, 87)  0.4221E-03 ( 17,  1, 90)  0.8180E-04 ( 23,  1, 86)
   0.2293E-05 ( 23,  1, 86)  0.4013E-04 ( 23,  1, 86)  0.7415E-05 ( 23,  1, 86)  0.2037E-05 ( 23,  1, 86)  0.2344E-06 ( 23,  1, 86)
 
 SOLVING FOR HEAD 


     2 CALLS TO PCG ROUTINE FOR TIME STEP   1 IN STRESS PERIOD    1
     9 TOTAL ITERATIONS

 MAXIMUM HEAD CHANGE FOR EACH ITERATION (1 INDICATES THE FIRST INNER ITERATION):

    HEAD CHANGE    HEAD CHANGE    HEAD CHANGE    HEAD CHANGE    HEAD CHANGE 
   LAYER,ROW,COL  LAYER,ROW,COL  LAYER,ROW,COL  LAYER,ROW,COL  LAYER,ROW,COL
 ---------------------------------------------------------------------------
  1 -0.1384E-01  0 -0.6742E-02  0  0.6502E-02  0 -0.9613E-02  0  0.7079E-02
   ( 15,  1, 86)  (  8,  1, 12)  (  8,  1, 12)  (  8,  1, 47)  (  9,  1, 47)
  0  0.3266E-02  0  0.1429E-02  0  0.6086E-03  1 -0.3954E-03
   ( 11,  1, 54)  ( 11,  1, 68)  ( 11,  1, 56)  ( 11,  1, 55)

 MAXIMUM RESIDUAL FOR EACH ITERATION (1 INDICATES THE FIRST INNER ITERATION):

    RESIDUAL       RESIDUAL       RESIDUAL       RESIDUAL       RESIDUAL    
   LAYER,ROW,COL  LAYER,ROW,COL  LAYER,ROW,COL  LAYER,ROW,COL  LAYER,ROW,COL
 ---------------------------------------------------------------------------
  1 -0.1352E+06  0  0.9443E+05  0  0.9422E+05  0  0.7563E+05  0   6468.    
   ( 21,  1, 89)  ( 19,  1, 89)  ( 19,  1, 89)  ( 19,  1, 89)  ( 17,  1, 87)
  0  -3272.      0  -2618.      0  -1445.      1  -1293.    
   ( 17,  1, 88)  ( 22,  1, 87)  ( 22,  1, 87)  ( 22,  1, 87)


 FLOW MODEL IS TRANSIENT
 FLOW MODEL CONTAINS CONSTANT-HEAD CELLS


 MAXIMUM STEPSIZE DURING WHICH ANY PARTICLE CANNOT MOVE MORE THAN ONE CELL
 =  13.19    (WHEN MIN. R.F.=1)  AT K=  17, I=   1, J=  90

 MAXIMUM STEPSIZE WHICH MEETS STABILITY CRITERION OF THE ADVECTION TERM
 (FOR PURE FINITE-DIFFERENCE OPTION, MIXELM=0) 
 =  7.983    (WHEN MIN. R.F.=1)  AT K=  16, I=   1, J=  90


 TOTAL NUMBER OF POINT SOURCES/SINKS PRESENT IN THE FLOW MODEL =    30

 MAXIMUM STEPSIZE WHICH MEETS STABILITY CRITERION OF THE SINK & SOURCE TERM
 =  12.11    (WHEN MIN. R.F.=1)  AT K=  17, I=   1, J=  91

 MAXIMUM STEPSIZE WHICH MEETS STABILITY CRITERION OF THE DISPERSION TERM
 =  4.363    (WHEN MIN. R.F.=1)  AT K=  17, I=   1, J=  90
     1 CALLS TO GCG PACKAGE FOR TRANSPORT TIME STEP  66 IN FLOW TIME STEP   1 STRESS PERIOD   1
     7 TOTAL ITERATIONS
     1 CALLS TO GCG PACKAGE FOR TRANSPORT TIME STEP  66 IN FLOW TIME STEP   1 STRESS PERIOD   1
     9 TOTAL ITERATIONS
 
 SOLVING FOR HEAD 


     2 CALLS TO PCG ROUTINE FOR TIME STEP   1 IN STRESS PERIOD    1
     8 TOTAL ITERATIONS

 MAXIMUM HEAD CHANGE FOR EACH ITERATION (1 INDICATES THE FIRST INNER ITERATION):

    HEAD CHANGE    HEAD CHANGE    HEAD CHANGE    HEAD CHANGE    HEAD CHANGE 
   LAYER,ROW,COL  LAYER,ROW,COL  LAYER,ROW,COL  LAYER,ROW,COL  LAYER,ROW,COL
 ---------------------------------------------------------------------------
  1  0.1366E-01  0 -0.4245E-02  0 -0.3795E-02  0  0.8010E-02  0 -0.8388E-02
   ( 15,  1, 86)  ( 17,  1, 89)  (  8,  1, 12)  ( 11,  1, 52)  ( 11,  1, 51)
  0 -0.2303E-02  0  0.6707E-03  1 -0.5249E-03
   ( 11,  1, 68)  (  8,  1, 36)  (  7,  1, 37)

 MAXIMUM RESIDUAL FOR EACH ITERATION (1 INDICATES THE FIRST INNER ITERATION):

    RESIDUAL       RESIDUAL       RESIDUAL       RESIDUAL       RESIDUAL    
   LAYER,ROW,COL  LAYER,ROW,COL  LAYER,ROW,COL  LAYER,ROW,COL  LAYER,ROW,COL
 ---------------------------------------------------------------------------
  1  0.1360E+06  0 -0.9679E+05  0 -0.9596E+05  0 -0.2426E+05  0   5584.    
   ( 21,  1, 89)  ( 19,  1, 89)  ( 19,  1, 89)  ( 19,  1, 89)  ( 17,  1, 88)
  0   2752.      0   2465.      1   2006.    
   ( 22,  1, 87)  ( 22,  1, 87)  ( 22,  1, 87)


 FLOW MODEL IS TRANSIENT
 FLOW MODEL CONTAINS CONSTANT-HEAD CELLS


 MAXIMUM STEPSIZE DURING WHICH ANY PARTICLE CANNOT MOVE MORE THAN ONE CELL
 =  12.83    (WHEN MIN. R.F.=1)  AT K=  17, I=   1, J=  90

 MAXIMUM STEPSIZE WHICH MEETS STABILITY CRITERION OF THE ADVECTION TERM
 (FOR PURE FINITE-DIFFERENCE OPTION, MIXELM=0) 
 =  8.029    (WHEN MIN. R.F.=1)  AT K=  16, I=   1, J=  90


 TOTAL NUMBER OF POINT SOURCES/SINKS PRESENT IN THE FLOW MODEL =    30

 MAXIMUM STEPSIZE WHICH MEETS STABILITY CRITERION OF THE SINK & SOURCE TERM
 =  12.19    (WHEN MIN. R.F.=1)  AT K=  17, I=   1, J=  91

 MAXIMUM STEPSIZE WHICH MEETS STABILITY CRITERION OF THE DISPERSION TERM
 =  4.019    (WHEN MIN. R.F.=1)  AT K=  17, I=   1, J=  90
     1 CALLS TO GCG PACKAGE FOR TRANSPORT TIME STEP  67 IN FLOW TIME STEP   1 STRESS PERIOD   1
     8 TOTAL ITERATIONS
     1 CALLS TO GCG PACKAGE FOR TRANSPORT TIME STEP  67 IN FLOW TIME STEP   1 STRESS PERIOD   1
    10 TOTAL ITERATIONS
 
 SOLVING FOR HEAD 


     2 CALLS TO PCG ROUTINE FOR TIME STEP   1 IN STRESS PERIOD    1
     8 TOTAL ITERATIONS

 MAXIMUM HEAD CHANGE FOR EACH ITERATION (1 INDICATES THE FIRST INNER ITERATION):

    HEAD CHANGE    HEAD CHANGE    HEAD CHANGE    HEAD CHANGE    HEAD CHANGE 
   LAYER,ROW,COL  LAYER,ROW,COL  LAYER,ROW,COL  LAYER,ROW,COL  LAYER,ROW,COL
 ---------------------------------------------------------------------------
  1 -0.1383E-01  0 -0.8724E-02  0  0.4739E-02  0  0.9446E-02  0 -0.6640E-02
   ( 15,  1, 86)  (  6,  1, 37)  (  7,  1, 12)  (  9,  1, 41)  (  8,  1, 46)
  0  0.2779E-02  0  0.9377E-03  1 -0.6264E-03
   ( 11,  1, 68)  ( 11,  1, 49)  ( 11,  1, 51)

 MAXIMUM RESIDUAL FOR EACH ITERATION (1 INDICATES THE FIRST INNER ITERATION):

    RESIDUAL       RESIDUAL       RESIDUAL       RESIDUAL       RESIDUAL    
   LAYER,ROW,COL  LAYER,ROW,COL  LAYER,ROW,COL  LAYER,ROW,COL  LAYER,ROW,COL
 ---------------------------------------------------------------------------
  1 -0.1355E+06  0  0.9534E+05  0  0.9473E+05  0  0.7663E+05  0   6499.    
   ( 21,  1, 89)  ( 19,  1, 89)  ( 19,  1, 89)  ( 19,  1, 89)  ( 17,  1, 87)
  0  -3180.      0  -2577.      1  -1620.    
   ( 17,  1, 88)  ( 22,  1, 87)  ( 22,  1, 87)


 FLOW MODEL IS TRANSIENT
 FLOW MODEL CONTAINS CONSTANT-HEAD CELLS


 MAXIMUM STEPSIZE DURING WHICH ANY PARTICLE CANNOT MOVE MORE THAN ONE CELL
 =  13.19    (WHEN MIN. R.F.=1)  AT K=  17, I=   1, J=  90

 MAXIMUM STEPSIZE WHICH MEETS STABILITY CRITERION OF THE ADVECTION TERM
 (FOR PURE FINITE-DIFFERENCE OPTION, MIXELM=0) 
 =  7.984    (WHEN MIN. R.F.=1)  AT K=  16, I=   1, J=  90


 TOTAL NUMBER OF POINT SOURCES/SINKS PRESENT IN THE FLOW MODEL =    30

 MAXIMUM STEPSIZE WHICH MEETS STABILITY CRITERION OF THE SINK & SOURCE TERM
 =  12.12    (WHEN MIN. R.F.=1)  AT K=  17, I=   1, J=  91

 MAXIMUM STEPSIZE WHICH MEETS STABILITY CRITERION OF THE DISPERSION TERM
 =  4.368    (WHEN MIN. R.F.=1)  AT K=  17, I=   1, J=  90
     1 CALLS TO GCG PACKAGE FOR TRANSPORT TIME STEP  68 IN FLOW TIME STEP   1 STRESS PERIOD   1
    10 TOTAL ITERATIONS
     1 CALLS TO GCG PACKAGE FOR TRANSPORT TIME STEP  68 IN FLOW TIME STEP   1 STRESS PERIOD   1
     9 TOTAL ITERATIONS
 
 SOLVING FOR HEAD 


     2 CALLS TO PCG ROUTINE FOR TIME STEP   1 IN STRESS PERIOD    1
     9 TOTAL ITERATIONS

 MAXIMUM HEAD CHANGE FOR EACH ITERATION (1 INDICATES THE FIRST INNER ITERATION):

    HEAD CHANGE    HEAD CHANGE    HEAD CHANGE    HEAD CHANGE    HEAD CHANGE 
   LAYER,ROW,COL  LAYER,ROW,COL  LAYER,ROW,COL  LAYER,ROW,COL  LAYER,ROW,COL
 ---------------------------------------------------------------------------
  1  0.1368E-01  0 -0.1254E-01  0 -0.3415E-02  0  0.1514E-01  0 -0.8734E-02
   ( 15,  1, 86)  ( 11,  1, 51)  (  8,  1, 12)  ( 11,  1, 51)  ( 11,  1, 52)
  0  0.3119E-02  0  0.1191E-02  0 -0.9316E-03  1  0.6469E-03
   ( 11,  1, 38)  (  7,  1, 44)  ( 11,  1, 70)  ( 11,  1, 70)

 MAXIMUM RESIDUAL FOR EACH ITERATION (1 INDICATES THE FIRST INNER ITERATION):

    RESIDUAL       RESIDUAL       RESIDUAL       RESIDUAL       RESIDUAL    
   LAYER,ROW,COL  LAYER,ROW,COL  LAYER,ROW,COL  LAYER,ROW,COL  LAYER,ROW,COL
 ---------------------------------------------------------------------------
  1  0.1372E+06  0 -0.9715E+05  0 -0.9614E+05  0 -0.7884E+05  0   6536.    
   ( 21,  1, 89)  ( 19,  1, 89)  ( 19,  1, 89)  ( 19,  1, 89)  ( 17,  1, 88)
  0   3210.      0   2519.      0   1578.      1   1390.    
   ( 17,  1, 88)  ( 22,  1, 87)  ( 22,  1, 87)  ( 22,  1, 87)


 FLOW MODEL IS TRANSIENT
 FLOW MODEL CONTAINS CONSTANT-HEAD CELLS


 MAXIMUM STEPSIZE DURING WHICH ANY PARTICLE CANNOT MOVE MORE THAN ONE CELL
 =  12.86    (WHEN MIN. R.F.=1)  AT K=  17, I=   1, J=  90

 MAXIMUM STEPSIZE WHICH MEETS STABILITY CRITERION OF THE ADVECTION TERM
 (FOR PURE FINITE-DIFFERENCE OPTION, MIXELM=0) 
 =  8.039    (WHEN MIN. R.F.=1)  AT K=  16, I=   1, J=  90


 TOTAL NUMBER OF POINT SOURCES/SINKS PRESENT IN THE FLOW MODEL =    30

 MAXIMUM STEPSIZE WHICH MEETS STABILITY CRITERION OF THE SINK & SOURCE TERM
 =  12.21    (WHEN MIN. R.F.=1)  AT K=  17, I=   1, J=  91

 MAXIMUM STEPSIZE WHICH MEETS STABILITY CRITERION OF THE DISPERSION TERM
 =  4.028    (WHEN MIN. R.F.=1)  AT K=  17, I=   1, J=  90
     1 CALLS TO GCG PACKAGE FOR TRANSPORT TIME STEP  69 IN FLOW TIME STEP   1 STRESS PERIOD   1
     8 TOTAL ITERATIONS
     1 CALLS TO GCG PACKAGE FOR TRANSPORT TIME STEP  69 IN FLOW TIME STEP   1 STRESS PERIOD   1
    10 TOTAL ITERATIONS
 
 SOLVING FOR HEAD 


     2 CALLS TO PCG ROUTINE FOR TIME STEP   1 IN STRESS PERIOD    1
     8 TOTAL ITERATIONS

 MAXIMUM HEAD CHANGE FOR EACH ITERATION (1 INDICATES THE FIRST INNER ITERATION):

    HEAD CHANGE    HEAD CHANGE    HEAD CHANGE    HEAD CHANGE    HEAD CHANGE 
   LAYER,ROW,COL  LAYER,ROW,COL  LAYER,ROW,COL  LAYER,ROW,COL  LAYER,ROW,COL
 ---------------------------------------------------------------------------
  1 -0.1369E-01  0  0.4178E-02  0  0.3994E-02  0 -0.9175E-02  0  0.8642E-02
   ( 15,  1, 86)  ( 17,  1, 89)  (  8,  1, 12)  ( 11,  1, 57)  ( 11,  1, 57)
  0 -0.1850E-02  0  0.8860E-03  1  0.6458E-03
   (  8,  1, 45)  ( 11,  1, 64)  ( 11,  1, 56)

 MAXIMUM RESIDUAL FOR EACH ITERATION (1 INDICATES THE FIRST INNER ITERATION):

    RESIDUAL       RESIDUAL       RESIDUAL       RESIDUAL       RESIDUAL    
   LAYER,ROW,COL  LAYER,ROW,COL  LAYER,ROW,COL  LAYER,ROW,COL  LAYER,ROW,COL
 ---------------------------------------------------------------------------
  1 -0.1354E+06  0  0.9643E+05  0  0.9565E+05  0  0.2552E+05  0  -5436.    
   ( 21,  1, 89)  ( 19,  1, 89)  ( 19,  1, 89)  ( 19,  1, 89)  ( 17,  1, 88)
  0  -2712.      0  -2481.      1  -1809.    
   ( 22,  1, 87)  ( 22,  1, 87)  ( 22,  1, 87)


 FLOW MODEL IS TRANSIENT
 FLOW MODEL CONTAINS CONSTANT-HEAD CELLS


 MAXIMUM STEPSIZE DURING WHICH ANY PARTICLE CANNOT MOVE MORE THAN ONE CELL
 =  13.23    (WHEN MIN. R.F.=1)  AT K=  17, I=   1, J=  90

 MAXIMUM STEPSIZE WHICH MEETS STABILITY CRITERION OF THE ADVECTION TERM
 (FOR PURE FINITE-DIFFERENCE OPTION, MIXELM=0) 
 =  7.998    (WHEN MIN. R.F.=1)  AT K=  16, I=   1, J=  90


 TOTAL NUMBER OF POINT SOURCES/SINKS PRESENT IN THE FLOW MODEL =    30

 MAXIMUM STEPSIZE WHICH MEETS STABILITY CRITERION OF THE SINK & SOURCE TERM
 =  12.16    (WHEN MIN. R.F.=1)  AT K=  17, I=   1, J=  91

 MAXIMUM STEPSIZE WHICH MEETS STABILITY CRITERION OF THE DISPERSION TERM
 =  4.384    (WHEN MIN. R.F.=1)  AT K=  17, I=   1, J=  90
     1 CALLS TO GCG PACKAGE FOR TRANSPORT TIME STEP  70 IN FLOW TIME STEP   1 STRESS PERIOD   1
    10 TOTAL ITERATIONS
  MAXIMUM CONCENTRATION CHANGES FOR EACH ITERATION:
  MAX. CHANGE LAYER,ROW,COL MAX. CHANGE LAYER,ROW,COL MAX. CHANGE LAYER,ROW,COL MAX. CHANGE LAYER,ROW,COL MAX. CHANGE LAYER,ROW,COL
 ------------------------------------------------------------------------------------------------------------------------------------
   0.4869E-01 ( 19,  1, 88)  0.3312E-02 ( 19,  1, 87)  0.2200E-02 ( 18,  1, 87)  0.2173E-03 ( 16,  1, 88)  0.1465E-03 ( 16,  1, 89)
   0.2845E-04 ( 16,  1, 90)  0.3262E-05 ( 21,  1, 78)  0.3372E-05 ( 15,  1, 89)  0.5698E-05 ( 16,  1, 89)  0.1022E-06 ( 17,  1, 89)
     1 CALLS TO GCG PACKAGE FOR TRANSPORT TIME STEP  70 IN FLOW TIME STEP   1 STRESS PERIOD   1
     9 TOTAL ITERATIONS
  MAXIMUM CONCENTRATION CHANGES FOR EACH ITERATION:
  MAX. CHANGE LAYER,ROW,COL MAX. CHANGE LAYER,ROW,COL MAX. CHANGE LAYER,ROW,COL MAX. CHANGE LAYER,ROW,COL MAX. CHANGE LAYER,ROW,COL
 ------------------------------------------------------------------------------------------------------------------------------------
   0.6349E-01 ( 19,  1, 88)  0.1117E-01 ( 20,  1, 87)  0.1611E-02 ( 23,  1, 88)  0.4135E-03 ( 23,  1, 87)  0.3384E-04 ( 23,  1, 88)
   0.7845E-04 ( 17,  1, 87)  0.4896E-05 ( 16,  1, 89)  0.1858E-05 ( 16,  1, 89)  0.4012E-06 ( 17,  1, 89)



 >>>>>>>>>>>>>>>>>>>>>>>>>>>>>>>>>>>>>>>>>>>>>>>>>>>>>>>FOR COMPONENT NO. 01<<<<<<<<<<<<<<<<<<<<<<<<<<<<<<<<<<<<<<<<<<<<<<<<<<<<<<<


                                            -------------------------------------------
                                                      TRANSPORT STEP NO.   70
                                            -------------------------------------------

 TOTAL ELAPSED TIME SINCE BEGINNING OF SIMULATION =   3500.000    D   
 .....................................................................

                     CUMMULATIVE MASS BUDGETS AT END OF TRANSPORT STEP   70, TIME STEP    1, STRESS PERIOD    1
                     ------------------------------------------------------------------------------------------

                                                             IN                           OUT
                                                      ----------------             ----------------
                               CONSTANT CONCENTRATION:    0.000000                    0.000000    
                                        CONSTANT HEAD:   0.1386922E+09              -0.1385717E+09
                                                WELLS:    0.000000                    0.000000    
                                             RECHARGE:    0.000000                    0.000000    
                               1ST/0TH ORDER REACTION:    0.000000                    0.000000    
                                MASS STORAGE (SOLUTE):   0.1945330E+08              -0.1957380E+08
                            ---------------------------------------------------------------------------
                                              [TOTAL]:   0.1581456E+09 KG           -0.1581456E+09 KG  

                                                          NET (IN - OUT):   -23.20513    
                                                   DISCREPANCY (PERCENT):  -0.1467326E-04



 >>>>>>>>>>>>>>>>>>>>>>>>>>>>>>>>>>>>>>>>>>>>>>>>>>>>>>>FOR COMPONENT NO. 02<<<<<<<<<<<<<<<<<<<<<<<<<<<<<<<<<<<<<<<<<<<<<<<<<<<<<<<


                                            -------------------------------------------
                                                      TRANSPORT STEP NO.   70
                                            -------------------------------------------

 TOTAL ELAPSED TIME SINCE BEGINNING OF SIMULATION =   3500.000    D   
 .....................................................................

                     CUMMULATIVE MASS BUDGETS AT END OF TRANSPORT STEP   70, TIME STEP    1, STRESS PERIOD    1
                     ------------------------------------------------------------------------------------------

                                                             IN                           OUT
                                                      ----------------             ----------------
                               CONSTANT CONCENTRATION:    0.000000                    0.000000    
                                        CONSTANT HEAD:    0.000000                  -0.4965539E+10
                                                WELLS:    0.000000                    0.000000    
                                             RECHARGE:    0.000000                    0.000000    
                               1ST/0TH ORDER REACTION:   0.5792500E+11                0.000000    
                                MASS STORAGE (SOLUTE):   0.5064974E+09              -0.5346596E+11
                            ---------------------------------------------------------------------------
                                              [TOTAL]:   0.5843152E+11 KG           -0.5843152E+11 KG  

                                                          NET (IN - OUT):    669.7036    
                                                   DISCREPANCY (PERCENT):   0.1146134E-05
 
 SOLVING FOR HEAD 


     2 CALLS TO PCG ROUTINE FOR TIME STEP   1 IN STRESS PERIOD    1
     9 TOTAL ITERATIONS

 MAXIMUM HEAD CHANGE FOR EACH ITERATION (1 INDICATES THE FIRST INNER ITERATION):

    HEAD CHANGE    HEAD CHANGE    HEAD CHANGE    HEAD CHANGE    HEAD CHANGE 
   LAYER,ROW,COL  LAYER,ROW,COL  LAYER,ROW,COL  LAYER,ROW,COL  LAYER,ROW,COL
 ---------------------------------------------------------------------------
  1  0.1369E-01  0 -0.7935E-02  0 -0.4389E-02  0  0.1027E-01  0 -0.6333E-02
   ( 15,  1, 86)  ( 11,  1, 67)  (  8,  1, 12)  ( 11,  1, 67)  (  7,  1, 54)
  0 -0.3889E-02  0 -0.1418E-02  0 -0.7219E-03  1  0.5803E-03
   ( 11,  1, 49)  ( 11,  1, 57)  ( 11,  1, 70)  ( 11,  1, 70)

 MAXIMUM RESIDUAL FOR EACH ITERATION (1 INDICATES THE FIRST INNER ITERATION):

    RESIDUAL       RESIDUAL       RESIDUAL       RESIDUAL       RESIDUAL    
   LAYER,ROW,COL  LAYER,ROW,COL  LAYER,ROW,COL  LAYER,ROW,COL  LAYER,ROW,COL
 ---------------------------------------------------------------------------
  1  0.1368E+06  0 -0.9656E+05  0 -0.9582E+05  0 -0.7795E+05  0  -6819.    
   ( 21,  1, 89)  ( 19,  1, 89)  ( 19,  1, 89)  ( 19,  1, 89)  ( 17,  1, 87)
  0   3387.      0   2558.      0   1672.      1   1486.    
   ( 17,  1, 88)  ( 22,  1, 87)  ( 22,  1, 87)  ( 22,  1, 87)


 FLOW MODEL IS TRANSIENT
 FLOW MODEL CONTAINS CONSTANT-HEAD CELLS


 MAXIMUM STEPSIZE DURING WHICH ANY PARTICLE CANNOT MOVE MORE THAN ONE CELL
 =  12.87    (WHEN MIN. R.F.=1)  AT K=  17, I=   1, J=  90

 MAXIMUM STEPSIZE WHICH MEETS STABILITY CRITERION OF THE ADVECTION TERM
 (FOR PURE FINITE-DIFFERENCE OPTION, MIXELM=0) 
 =  8.044    (WHEN MIN. R.F.=1)  AT K=  16, I=   1, J=  90


 TOTAL NUMBER OF POINT SOURCES/SINKS PRESENT IN THE FLOW MODEL =    30

 MAXIMUM STEPSIZE WHICH MEETS STABILITY CRITERION OF THE SINK & SOURCE TERM
 =  12.24    (WHEN MIN. R.F.=1)  AT K=  17, I=   1, J=  91

 MAXIMUM STEPSIZE WHICH MEETS STABILITY CRITERION OF THE DISPERSION TERM
 =  4.034    (WHEN MIN. R.F.=1)  AT K=  17, I=   1, J=  90
     1 CALLS TO GCG PACKAGE FOR TRANSPORT TIME STEP  71 IN FLOW TIME STEP   1 STRESS PERIOD   1
     8 TOTAL ITERATIONS
     1 CALLS TO GCG PACKAGE FOR TRANSPORT TIME STEP  71 IN FLOW TIME STEP   1 STRESS PERIOD   1
    10 TOTAL ITERATIONS
 
 SOLVING FOR HEAD 


     2 CALLS TO PCG ROUTINE FOR TIME STEP   1 IN STRESS PERIOD    1
     8 TOTAL ITERATIONS

 MAXIMUM HEAD CHANGE FOR EACH ITERATION (1 INDICATES THE FIRST INNER ITERATION):

    HEAD CHANGE    HEAD CHANGE    HEAD CHANGE    HEAD CHANGE    HEAD CHANGE 
   LAYER,ROW,COL  LAYER,ROW,COL  LAYER,ROW,COL  LAYER,ROW,COL  LAYER,ROW,COL
 ---------------------------------------------------------------------------
  1 -0.1374E-01  0  0.4256E-02  0  0.4616E-02  0  0.7991E-02  0 -0.8283E-02
   ( 15,  1, 86)  ( 17,  1, 89)  (  8,  1, 12)  ( 11,  1, 52)  ( 11,  1, 53)
  0  0.1427E-02  0  0.8788E-03  1  0.5451E-03
   ( 11,  1, 68)  ( 11,  1, 49)  ( 11,  1, 67)

 MAXIMUM RESIDUAL FOR EACH ITERATION (1 INDICATES THE FIRST INNER ITERATION):

    RESIDUAL       RESIDUAL       RESIDUAL       RESIDUAL       RESIDUAL    
   LAYER,ROW,COL  LAYER,ROW,COL  LAYER,ROW,COL  LAYER,ROW,COL  LAYER,ROW,COL
 ---------------------------------------------------------------------------
  1 -0.1373E+06  0  0.9776E+05  0  0.9708E+05  0  0.2993E+05  0  -5587.    
   ( 21,  1, 89)  ( 19,  1, 89)  ( 19,  1, 89)  ( 19,  1, 89)  ( 17,  1, 88)
  0  -2758.      0  -2487.      1  -1994.    
   ( 22,  1, 87)  ( 22,  1, 87)  ( 22,  1, 87)


 FLOW MODEL IS TRANSIENT
 FLOW MODEL CONTAINS CONSTANT-HEAD CELLS


 MAXIMUM STEPSIZE DURING WHICH ANY PARTICLE CANNOT MOVE MORE THAN ONE CELL
 =  13.23    (WHEN MIN. R.F.=1)  AT K=  17, I=   1, J=  90

 MAXIMUM STEPSIZE WHICH MEETS STABILITY CRITERION OF THE ADVECTION TERM
 (FOR PURE FINITE-DIFFERENCE OPTION, MIXELM=0) 
 =  7.998    (WHEN MIN. R.F.=1)  AT K=  16, I=   1, J=  90


 TOTAL NUMBER OF POINT SOURCES/SINKS PRESENT IN THE FLOW MODEL =    30

 MAXIMUM STEPSIZE WHICH MEETS STABILITY CRITERION OF THE SINK & SOURCE TERM
 =  12.16    (WHEN MIN. R.F.=1)  AT K=  17, I=   1, J=  91

 MAXIMUM STEPSIZE WHICH MEETS STABILITY CRITERION OF THE DISPERSION TERM
 =  4.384    (WHEN MIN. R.F.=1)  AT K=  17, I=   1, J=  90
     1 CALLS TO GCG PACKAGE FOR TRANSPORT TIME STEP  72 IN FLOW TIME STEP   1 STRESS PERIOD   1
     8 TOTAL ITERATIONS
     1 CALLS TO GCG PACKAGE FOR TRANSPORT TIME STEP  72 IN FLOW TIME STEP   1 STRESS PERIOD   1
     9 TOTAL ITERATIONS
 
 SOLVING FOR HEAD 


     2 CALLS TO PCG ROUTINE FOR TIME STEP   1 IN STRESS PERIOD    1
     9 TOTAL ITERATIONS

 MAXIMUM HEAD CHANGE FOR EACH ITERATION (1 INDICATES THE FIRST INNER ITERATION):

    HEAD CHANGE    HEAD CHANGE    HEAD CHANGE    HEAD CHANGE    HEAD CHANGE 
   LAYER,ROW,COL  LAYER,ROW,COL  LAYER,ROW,COL  LAYER,ROW,COL  LAYER,ROW,COL
 ---------------------------------------------------------------------------
  1  0.1379E-01  0 -0.7888E-02  0 -0.4386E-02  0  0.9692E-02  0  0.6347E-02
   ( 15,  1, 86)  ( 11,  1, 50)  (  7,  1, 12)  ( 11,  1, 50)  ( 11,  1, 67)
  0  0.2792E-02  0 -0.1137E-02  0 -0.8112E-03  1  0.6069E-03
   ( 11,  1, 38)  ( 11,  1, 70)  ( 11,  1, 55)  ( 11,  1, 55)

 MAXIMUM RESIDUAL FOR EACH ITERATION (1 INDICATES THE FIRST INNER ITERATION):

    RESIDUAL       RESIDUAL       RESIDUAL       RESIDUAL       RESIDUAL    
   LAYER,ROW,COL  LAYER,ROW,COL  LAYER,ROW,COL  LAYER,ROW,COL  LAYER,ROW,COL
 ---------------------------------------------------------------------------
  1  0.1378E+06  0 -0.9794E+05  0 -0.9720E+05  0 -0.8024E+05  0   6334.    
   ( 21,  1, 89)  ( 19,  1, 89)  ( 19,  1, 89)  ( 19,  1, 89)  ( 17,  1, 88)
  0   3110.      0   2560.      0   1291.      1   1148.    
   ( 17,  1, 88)  ( 22,  1, 87)  ( 22,  1, 87)  ( 22,  1, 87)


 FLOW MODEL IS TRANSIENT
 FLOW MODEL CONTAINS CONSTANT-HEAD CELLS


 MAXIMUM STEPSIZE DURING WHICH ANY PARTICLE CANNOT MOVE MORE THAN ONE CELL
 =  12.87    (WHEN MIN. R.F.=1)  AT K=  17, I=   1, J=  90

 MAXIMUM STEPSIZE WHICH MEETS STABILITY CRITERION OF THE ADVECTION TERM
 (FOR PURE FINITE-DIFFERENCE OPTION, MIXELM=0) 
 =  8.044    (WHEN MIN. R.F.=1)  AT K=  16, I=   1, J=  90


 TOTAL NUMBER OF POINT SOURCES/SINKS PRESENT IN THE FLOW MODEL =    30

 MAXIMUM STEPSIZE WHICH MEETS STABILITY CRITERION OF THE SINK & SOURCE TERM
 =  12.24    (WHEN MIN. R.F.=1)  AT K=  17, I=   1, J=  91

 MAXIMUM STEPSIZE WHICH MEETS STABILITY CRITERION OF THE DISPERSION TERM
 =  4.030    (WHEN MIN. R.F.=1)  AT K=  17, I=   1, J=  90
     1 CALLS TO GCG PACKAGE FOR TRANSPORT TIME STEP  73 IN FLOW TIME STEP   1 STRESS PERIOD   1
     8 TOTAL ITERATIONS
     1 CALLS TO GCG PACKAGE FOR TRANSPORT TIME STEP  73 IN FLOW TIME STEP   1 STRESS PERIOD   1
    10 TOTAL ITERATIONS
 
 SOLVING FOR HEAD 


     2 CALLS TO PCG ROUTINE FOR TIME STEP   1 IN STRESS PERIOD    1
     8 TOTAL ITERATIONS

 MAXIMUM HEAD CHANGE FOR EACH ITERATION (1 INDICATES THE FIRST INNER ITERATION):

    HEAD CHANGE    HEAD CHANGE    HEAD CHANGE    HEAD CHANGE    HEAD CHANGE 
   LAYER,ROW,COL  LAYER,ROW,COL  LAYER,ROW,COL  LAYER,ROW,COL  LAYER,ROW,COL
 ---------------------------------------------------------------------------
  1 -0.1368E-01  0  0.4213E-02  0  0.4156E-02  0 -0.9578E-02  0  0.1007E-01
   ( 15,  1, 86)  ( 17,  1, 89)  (  8,  1, 12)  ( 11,  1, 55)  ( 11,  1, 55)
  0 -0.1742E-02  0  0.7573E-03  1  0.6301E-03
   ( 11,  1, 53)  ( 11,  1, 63)  ( 11,  1, 39)

 MAXIMUM RESIDUAL FOR EACH ITERATION (1 INDICATES THE FIRST INNER ITERATION):

    RESIDUAL       RESIDUAL       RESIDUAL       RESIDUAL       RESIDUAL    
   LAYER,ROW,COL  LAYER,ROW,COL  LAYER,ROW,COL  LAYER,ROW,COL  LAYER,ROW,COL
 ---------------------------------------------------------------------------
  1 -0.1371E+06  0  0.9735E+05  0  0.9659E+05  0  0.2045E+05  0  -5151.    
   ( 21,  1, 89)  ( 19,  1, 89)  ( 19,  1, 89)  ( 19,  1, 89)  ( 17,  1, 88)
  0  -2792.      0  -2330.      1  -1987.    
   ( 22,  1, 87)  ( 22,  1, 87)  ( 22,  1, 87)


 FLOW MODEL IS TRANSIENT
 FLOW MODEL CONTAINS CONSTANT-HEAD CELLS


 MAXIMUM STEPSIZE DURING WHICH ANY PARTICLE CANNOT MOVE MORE THAN ONE CELL
 =  13.24    (WHEN MIN. R.F.=1)  AT K=  17, I=   1, J=  90

 MAXIMUM STEPSIZE WHICH MEETS STABILITY CRITERION OF THE ADVECTION TERM
 (FOR PURE FINITE-DIFFERENCE OPTION, MIXELM=0) 
 =  8.006    (WHEN MIN. R.F.=1)  AT K=  16, I=   1, J=  90


 TOTAL NUMBER OF POINT SOURCES/SINKS PRESENT IN THE FLOW MODEL =    30

 MAXIMUM STEPSIZE WHICH MEETS STABILITY CRITERION OF THE SINK & SOURCE TERM
 =  12.18    (WHEN MIN. R.F.=1)  AT K=  17, I=   1, J=  91

 MAXIMUM STEPSIZE WHICH MEETS STABILITY CRITERION OF THE DISPERSION TERM
 =  4.392    (WHEN MIN. R.F.=1)  AT K=  17, I=   1, J=  90
     1 CALLS TO GCG PACKAGE FOR TRANSPORT TIME STEP  74 IN FLOW TIME STEP   1 STRESS PERIOD   1
    10 TOTAL ITERATIONS
     1 CALLS TO GCG PACKAGE FOR TRANSPORT TIME STEP  74 IN FLOW TIME STEP   1 STRESS PERIOD   1
     9 TOTAL ITERATIONS
 
 SOLVING FOR HEAD 


     2 CALLS TO PCG ROUTINE FOR TIME STEP   1 IN STRESS PERIOD    1
     9 TOTAL ITERATIONS

 MAXIMUM HEAD CHANGE FOR EACH ITERATION (1 INDICATES THE FIRST INNER ITERATION):

    HEAD CHANGE    HEAD CHANGE    HEAD CHANGE    HEAD CHANGE    HEAD CHANGE 
   LAYER,ROW,COL  LAYER,ROW,COL  LAYER,ROW,COL  LAYER,ROW,COL  LAYER,ROW,COL
 ---------------------------------------------------------------------------
  1  0.1375E-01  0  0.4633E-02  0 -0.4351E-02  0 -0.1274E-01  0  0.1089E-01
   ( 15,  1, 86)  ( 11,  1, 38)  (  8,  1, 12)  ( 11,  1, 38)  ( 11,  1, 38)
  0 -0.3088E-02  0 -0.1334E-02  0 -0.9921E-03  1  0.8070E-03
   ( 11,  1, 49)  ( 11,  1, 70)  ( 11,  1, 54)  ( 11,  1, 55)

 MAXIMUM RESIDUAL FOR EACH ITERATION (1 INDICATES THE FIRST INNER ITERATION):

    RESIDUAL       RESIDUAL       RESIDUAL       RESIDUAL       RESIDUAL    
   LAYER,ROW,COL  LAYER,ROW,COL  LAYER,ROW,COL  LAYER,ROW,COL  LAYER,ROW,COL
 ---------------------------------------------------------------------------
  1  0.1380E+06  0 -0.9813E+05  0 -0.9739E+05  0 -0.5622E+05  0   5926.    
   ( 21,  1, 89)  ( 19,  1, 89)  ( 19,  1, 89)  ( 19,  1, 89)  ( 17,  1, 88)
  0   3111.      0   2572.      0   1302.      1   1169.    
   ( 17,  1, 88)  ( 22,  1, 87)  ( 22,  1, 87)  ( 22,  1, 87)


 FLOW MODEL IS TRANSIENT
 FLOW MODEL CONTAINS CONSTANT-HEAD CELLS


 MAXIMUM STEPSIZE DURING WHICH ANY PARTICLE CANNOT MOVE MORE THAN ONE CELL
 =  12.88    (WHEN MIN. R.F.=1)  AT K=  17, I=   1, J=  90

 MAXIMUM STEPSIZE WHICH MEETS STABILITY CRITERION OF THE ADVECTION TERM
 (FOR PURE FINITE-DIFFERENCE OPTION, MIXELM=0) 
 =  8.049    (WHEN MIN. R.F.=1)  AT K=  16, I=   1, J=  90


 TOTAL NUMBER OF POINT SOURCES/SINKS PRESENT IN THE FLOW MODEL =    30

 MAXIMUM STEPSIZE WHICH MEETS STABILITY CRITERION OF THE SINK & SOURCE TERM
 =  12.25    (WHEN MIN. R.F.=1)  AT K=  17, I=   1, J=  91

 MAXIMUM STEPSIZE WHICH MEETS STABILITY CRITERION OF THE DISPERSION TERM
 =  4.036    (WHEN MIN. R.F.=1)  AT K=  17, I=   1, J=  90
     1 CALLS TO GCG PACKAGE FOR TRANSPORT TIME STEP  75 IN FLOW TIME STEP   1 STRESS PERIOD   1
     8 TOTAL ITERATIONS
  MAXIMUM CONCENTRATION CHANGES FOR EACH ITERATION:
  MAX. CHANGE LAYER,ROW,COL MAX. CHANGE LAYER,ROW,COL MAX. CHANGE LAYER,ROW,COL MAX. CHANGE LAYER,ROW,COL MAX. CHANGE LAYER,ROW,COL
 ------------------------------------------------------------------------------------------------------------------------------------
   0.5209E-01 ( 20,  1, 87)  0.4359E-02 ( 19,  1, 89)  0.2088E-02 ( 17,  1, 86)  0.5158E-03 ( 20,  1, 89)  0.9473E-04 ( 16,  1, 89)
   0.2124E-04 ( 20,  1, 89)  0.2497E-04 ( 16,  1, 90)  0.6560E-06 ( 17,  1, 90)
     1 CALLS TO GCG PACKAGE FOR TRANSPORT TIME STEP  75 IN FLOW TIME STEP   1 STRESS PERIOD   1
    10 TOTAL ITERATIONS
  MAXIMUM CONCENTRATION CHANGES FOR EACH ITERATION:
  MAX. CHANGE LAYER,ROW,COL MAX. CHANGE LAYER,ROW,COL MAX. CHANGE LAYER,ROW,COL MAX. CHANGE LAYER,ROW,COL MAX. CHANGE LAYER,ROW,COL
 ------------------------------------------------------------------------------------------------------------------------------------
   0.7001E-01 ( 19,  1, 89)  0.1132E-01 ( 20,  1, 87)  0.1543E-02 ( 23,  1, 87)  0.4454E-03 ( 17,  1, 90)  0.8187E-04 ( 23,  1, 86)
   0.5497E-04 ( 23,  1, 86)  0.1031E-03 ( 23,  1, 86)  0.1606E-04 ( 23,  1, 86)  0.6868E-05 ( 23,  1, 86)  0.1177E-06 ( 23,  1, 86)
 
 SOLVING FOR HEAD 


     2 CALLS TO PCG ROUTINE FOR TIME STEP   1 IN STRESS PERIOD    1
     8 TOTAL ITERATIONS

 MAXIMUM HEAD CHANGE FOR EACH ITERATION (1 INDICATES THE FIRST INNER ITERATION):

    HEAD CHANGE    HEAD CHANGE    HEAD CHANGE    HEAD CHANGE    HEAD CHANGE 
   LAYER,ROW,COL  LAYER,ROW,COL  LAYER,ROW,COL  LAYER,ROW,COL  LAYER,ROW,COL
 ---------------------------------------------------------------------------
  1 -0.1374E-01  0  0.4218E-02  0  0.4445E-02  0 -0.1045E-01  0  0.1024E-01
   ( 15,  1, 86)  ( 17,  1, 89)  (  8,  1, 12)  ( 11,  1, 53)  ( 11,  1, 53)
  0  0.2074E-02  0 -0.5780E-03  1  0.5551E-03
   ( 11,  1, 68)  (  8,  1, 46)  ( 11,  1, 55)

 MAXIMUM RESIDUAL FOR EACH ITERATION (1 INDICATES THE FIRST INNER ITERATION):

    RESIDUAL       RESIDUAL       RESIDUAL       RESIDUAL       RESIDUAL    
   LAYER,ROW,COL  LAYER,ROW,COL  LAYER,ROW,COL  LAYER,ROW,COL  LAYER,ROW,COL
 ---------------------------------------------------------------------------
  1 -0.1386E+06  0  0.9845E+05  0  0.9773E+05  0  0.2514E+05  0  -5526.    
   ( 21,  1, 89)  ( 19,  1, 89)  ( 19,  1, 89)  ( 19,  1, 89)  ( 17,  1, 88)
  0  -2806.      0  -2498.      1  -2059.    
   ( 22,  1, 87)  ( 22,  1, 87)  ( 22,  1, 87)


 FLOW MODEL IS TRANSIENT
 FLOW MODEL CONTAINS CONSTANT-HEAD CELLS


 MAXIMUM STEPSIZE DURING WHICH ANY PARTICLE CANNOT MOVE MORE THAN ONE CELL
 =  13.24    (WHEN MIN. R.F.=1)  AT K=  17, I=   1, J=  90

 MAXIMUM STEPSIZE WHICH MEETS STABILITY CRITERION OF THE ADVECTION TERM
 (FOR PURE FINITE-DIFFERENCE OPTION, MIXELM=0) 
 =  8.006    (WHEN MIN. R.F.=1)  AT K=  16, I=   1, J=  90


 TOTAL NUMBER OF POINT SOURCES/SINKS PRESENT IN THE FLOW MODEL =    30

 MAXIMUM STEPSIZE WHICH MEETS STABILITY CRITERION OF THE SINK & SOURCE TERM
 =  12.18    (WHEN MIN. R.F.=1)  AT K=  17, I=   1, J=  91

 MAXIMUM STEPSIZE WHICH MEETS STABILITY CRITERION OF THE DISPERSION TERM
 =  4.390    (WHEN MIN. R.F.=1)  AT K=  17, I=   1, J=  90
     1 CALLS TO GCG PACKAGE FOR TRANSPORT TIME STEP  76 IN FLOW TIME STEP   1 STRESS PERIOD   1
    10 TOTAL ITERATIONS
     1 CALLS TO GCG PACKAGE FOR TRANSPORT TIME STEP  76 IN FLOW TIME STEP   1 STRESS PERIOD   1
     9 TOTAL ITERATIONS
 
 SOLVING FOR HEAD 


     2 CALLS TO PCG ROUTINE FOR TIME STEP   1 IN STRESS PERIOD    1
     9 TOTAL ITERATIONS

 MAXIMUM HEAD CHANGE FOR EACH ITERATION (1 INDICATES THE FIRST INNER ITERATION):

    HEAD CHANGE    HEAD CHANGE    HEAD CHANGE    HEAD CHANGE    HEAD CHANGE 
   LAYER,ROW,COL  LAYER,ROW,COL  LAYER,ROW,COL  LAYER,ROW,COL  LAYER,ROW,COL
 ---------------------------------------------------------------------------
  1  0.1378E-01  0  0.7543E-02  0 -0.3895E-02  0 -0.9722E-02  0  0.7117E-02
   ( 15,  1, 86)  (  7,  1, 44)  (  7,  1, 12)  (  7,  1, 45)  (  8,  1, 46)
  0  0.3555E-02  0 -0.1669E-02  0 -0.4508E-03  1 -0.5009E-03
   ( 11,  1, 54)  ( 11,  1, 54)  ( 11,  1, 70)  ( 11,  1, 49)

 MAXIMUM RESIDUAL FOR EACH ITERATION (1 INDICATES THE FIRST INNER ITERATION):

    RESIDUAL       RESIDUAL       RESIDUAL       RESIDUAL       RESIDUAL    
   LAYER,ROW,COL  LAYER,ROW,COL  LAYER,ROW,COL  LAYER,ROW,COL  LAYER,ROW,COL
 ---------------------------------------------------------------------------
  1  0.1385E+06  0 -0.9855E+05  0 -0.9769E+05  0 -0.7773E+05  0  -6159.    
   ( 21,  1, 89)  ( 19,  1, 89)  ( 19,  1, 89)  ( 19,  1, 89)  ( 17,  1, 87)
  0   3124.      0   2597.      0   875.2      1   763.5    
   ( 17,  1, 88)  ( 22,  1, 87)  ( 22,  1, 87)  ( 22,  1, 87)


 FLOW MODEL IS TRANSIENT
 FLOW MODEL CONTAINS CONSTANT-HEAD CELLS


 MAXIMUM STEPSIZE DURING WHICH ANY PARTICLE CANNOT MOVE MORE THAN ONE CELL
 =  12.88    (WHEN MIN. R.F.=1)  AT K=  17, I=   1, J=  90

 MAXIMUM STEPSIZE WHICH MEETS STABILITY CRITERION OF THE ADVECTION TERM
 (FOR PURE FINITE-DIFFERENCE OPTION, MIXELM=0) 
 =  8.051    (WHEN MIN. R.F.=1)  AT K=  16, I=   1, J=  90


 TOTAL NUMBER OF POINT SOURCES/SINKS PRESENT IN THE FLOW MODEL =    30

 MAXIMUM STEPSIZE WHICH MEETS STABILITY CRITERION OF THE SINK & SOURCE TERM
 =  12.25    (WHEN MIN. R.F.=1)  AT K=  17, I=   1, J=  91

 MAXIMUM STEPSIZE WHICH MEETS STABILITY CRITERION OF THE DISPERSION TERM
 =  4.036    (WHEN MIN. R.F.=1)  AT K=  17, I=   1, J=  90
     1 CALLS TO GCG PACKAGE FOR TRANSPORT TIME STEP  77 IN FLOW TIME STEP   1 STRESS PERIOD   1
     8 TOTAL ITERATIONS
     1 CALLS TO GCG PACKAGE FOR TRANSPORT TIME STEP  77 IN FLOW TIME STEP   1 STRESS PERIOD   1
    10 TOTAL ITERATIONS
 
 SOLVING FOR HEAD 


     2 CALLS TO PCG ROUTINE FOR TIME STEP   1 IN STRESS PERIOD    1
     8 TOTAL ITERATIONS

 MAXIMUM HEAD CHANGE FOR EACH ITERATION (1 INDICATES THE FIRST INNER ITERATION):

    HEAD CHANGE    HEAD CHANGE    HEAD CHANGE    HEAD CHANGE    HEAD CHANGE 
   LAYER,ROW,COL  LAYER,ROW,COL  LAYER,ROW,COL  LAYER,ROW,COL  LAYER,ROW,COL
 ---------------------------------------------------------------------------
  1 -0.1367E-01  0  0.4130E-02  0  0.3946E-02  0  0.1191E-01  0 -0.1350E-01
   ( 15,  1, 86)  ( 17,  1, 89)  (  8,  1, 12)  ( 11,  1, 49)  ( 11,  1, 49)
  0  0.2519E-02  0  0.8890E-03  1  0.8823E-03
   ( 11,  1, 49)  ( 11,  1, 62)  ( 11,  1, 54)

 MAXIMUM RESIDUAL FOR EACH ITERATION (1 INDICATES THE FIRST INNER ITERATION):

    RESIDUAL       RESIDUAL       RESIDUAL       RESIDUAL       RESIDUAL    
   LAYER,ROW,COL  LAYER,ROW,COL  LAYER,ROW,COL  LAYER,ROW,COL  LAYER,ROW,COL
 ---------------------------------------------------------------------------
  1 -0.1381E+06  0  0.9820E+05  0  0.9738E+05  0  0.2172E+05  0  -4926.    
   ( 21,  1, 89)  ( 19,  1, 89)  ( 19,  1, 89)  ( 19,  1, 89)  ( 17,  1, 88)
  0  -2788.      0  -2332.      1  -1995.    
   ( 22,  1, 87)  ( 22,  1, 87)  ( 22,  1, 87)


 FLOW MODEL IS TRANSIENT
 FLOW MODEL CONTAINS CONSTANT-HEAD CELLS


 MAXIMUM STEPSIZE DURING WHICH ANY PARTICLE CANNOT MOVE MORE THAN ONE CELL
 =  13.26    (WHEN MIN. R.F.=1)  AT K=  17, I=   1, J=  90

 MAXIMUM STEPSIZE WHICH MEETS STABILITY CRITERION OF THE ADVECTION TERM
 (FOR PURE FINITE-DIFFERENCE OPTION, MIXELM=0) 
 =  8.014    (WHEN MIN. R.F.=1)  AT K=  16, I=   1, J=  90


 TOTAL NUMBER OF POINT SOURCES/SINKS PRESENT IN THE FLOW MODEL =    30

 MAXIMUM STEPSIZE WHICH MEETS STABILITY CRITERION OF THE SINK & SOURCE TERM
 =  12.20    (WHEN MIN. R.F.=1)  AT K=  17, I=   1, J=  91

 MAXIMUM STEPSIZE WHICH MEETS STABILITY CRITERION OF THE DISPERSION TERM
 =  4.397    (WHEN MIN. R.F.=1)  AT K=  17, I=   1, J=  90
     1 CALLS TO GCG PACKAGE FOR TRANSPORT TIME STEP  78 IN FLOW TIME STEP   1 STRESS PERIOD   1
     7 TOTAL ITERATIONS
     1 CALLS TO GCG PACKAGE FOR TRANSPORT TIME STEP  78 IN FLOW TIME STEP   1 STRESS PERIOD   1
     9 TOTAL ITERATIONS
 
 SOLVING FOR HEAD 


     2 CALLS TO PCG ROUTINE FOR TIME STEP   1 IN STRESS PERIOD    1
     9 TOTAL ITERATIONS

 MAXIMUM HEAD CHANGE FOR EACH ITERATION (1 INDICATES THE FIRST INNER ITERATION):

    HEAD CHANGE    HEAD CHANGE    HEAD CHANGE    HEAD CHANGE    HEAD CHANGE 
   LAYER,ROW,COL  LAYER,ROW,COL  LAYER,ROW,COL  LAYER,ROW,COL  LAYER,ROW,COL
 ---------------------------------------------------------------------------
  1  0.1372E-01  0  0.6488E-02  0 -0.3771E-02  0 -0.1695E-01  0  0.1484E-01
   ( 15,  1, 86)  ( 11,  1, 54)  (  8,  1, 12)  ( 11,  1, 54)  ( 11,  1, 53)
  0 -0.2824E-02  0 -0.1224E-02  0 -0.6486E-03  1  0.5254E-03
   ( 11,  1, 49)  ( 11,  1, 70)  ( 11,  1, 38)  ( 11,  1, 37)

 MAXIMUM RESIDUAL FOR EACH ITERATION (1 INDICATES THE FIRST INNER ITERATION):

    RESIDUAL       RESIDUAL       RESIDUAL       RESIDUAL       RESIDUAL    
   LAYER,ROW,COL  LAYER,ROW,COL  LAYER,ROW,COL  LAYER,ROW,COL  LAYER,ROW,COL
 ---------------------------------------------------------------------------
  1  0.1381E+06  0 -0.9809E+05  0 -0.9723E+05  0 -0.5752E+05  0  -5627.    
   ( 21,  1, 89)  ( 19,  1, 89)  ( 19,  1, 89)  ( 19,  1, 89)  ( 17,  1, 87)
  0   2829.      0   2596.      0   1459.      1   1308.    
   ( 17,  1, 88)  ( 22,  1, 87)  ( 22,  1, 87)  ( 22,  1, 87)


 FLOW MODEL IS TRANSIENT
 FLOW MODEL CONTAINS CONSTANT-HEAD CELLS


 MAXIMUM STEPSIZE DURING WHICH ANY PARTICLE CANNOT MOVE MORE THAN ONE CELL
 =  12.89    (WHEN MIN. R.F.=1)  AT K=  17, I=   1, J=  90

 MAXIMUM STEPSIZE WHICH MEETS STABILITY CRITERION OF THE ADVECTION TERM
 (FOR PURE FINITE-DIFFERENCE OPTION, MIXELM=0) 
 =  8.052    (WHEN MIN. R.F.=1)  AT K=  16, I=   1, J=  90


 TOTAL NUMBER OF POINT SOURCES/SINKS PRESENT IN THE FLOW MODEL =    30

 MAXIMUM STEPSIZE WHICH MEETS STABILITY CRITERION OF THE SINK & SOURCE TERM
 =  12.26    (WHEN MIN. R.F.=1)  AT K=  17, I=   1, J=  91

 MAXIMUM STEPSIZE WHICH MEETS STABILITY CRITERION OF THE DISPERSION TERM
 =  4.040    (WHEN MIN. R.F.=1)  AT K=  17, I=   1, J=  90
     1 CALLS TO GCG PACKAGE FOR TRANSPORT TIME STEP  79 IN FLOW TIME STEP   1 STRESS PERIOD   1
     8 TOTAL ITERATIONS
     1 CALLS TO GCG PACKAGE FOR TRANSPORT TIME STEP  79 IN FLOW TIME STEP   1 STRESS PERIOD   1
    10 TOTAL ITERATIONS
 
 SOLVING FOR HEAD 


     2 CALLS TO PCG ROUTINE FOR TIME STEP   1 IN STRESS PERIOD    1
     9 TOTAL ITERATIONS

 MAXIMUM HEAD CHANGE FOR EACH ITERATION (1 INDICATES THE FIRST INNER ITERATION):

    HEAD CHANGE    HEAD CHANGE    HEAD CHANGE    HEAD CHANGE    HEAD CHANGE 
   LAYER,ROW,COL  LAYER,ROW,COL  LAYER,ROW,COL  LAYER,ROW,COL  LAYER,ROW,COL
 ---------------------------------------------------------------------------
  1 -0.1382E-01  0  0.4255E-02  0  0.4599E-02  0  0.9356E-02  0 -0.9239E-02
   ( 15,  1, 86)  ( 17,  1, 89)  (  8,  1, 12)  (  7,  1, 44)  (  6,  1, 44)
  0  0.2162E-02  0  0.1010E-02  0  0.7256E-03  1 -0.7888E-03
   ( 11,  1, 68)  ( 11,  1, 50)  ( 11,  1, 70)  ( 11,  1, 70)

 MAXIMUM RESIDUAL FOR EACH ITERATION (1 INDICATES THE FIRST INNER ITERATION):

    RESIDUAL       RESIDUAL       RESIDUAL       RESIDUAL       RESIDUAL    
   LAYER,ROW,COL  LAYER,ROW,COL  LAYER,ROW,COL  LAYER,ROW,COL  LAYER,ROW,COL
 ---------------------------------------------------------------------------
  1 -0.1397E+06  0  0.9965E+05  0  0.9894E+05  0  0.3425E+05  0  -5771.    
   ( 21,  1, 89)  ( 19,  1, 89)  ( 19,  1, 89)  ( 19,  1, 89)  ( 17,  1, 88)
  0  -2818.      0  -2479.      0  -795.6      1  -675.0    
   ( 22,  1, 87)  ( 22,  1, 87)  ( 22,  1, 87)  ( 22,  1, 87)


 FLOW MODEL IS TRANSIENT
 FLOW MODEL CONTAINS CONSTANT-HEAD CELLS


 MAXIMUM STEPSIZE DURING WHICH ANY PARTICLE CANNOT MOVE MORE THAN ONE CELL
 =  13.22    (WHEN MIN. R.F.=1)  AT K=  17, I=   1, J=  90

 MAXIMUM STEPSIZE WHICH MEETS STABILITY CRITERION OF THE ADVECTION TERM
 (FOR PURE FINITE-DIFFERENCE OPTION, MIXELM=0) 
 =  7.999    (WHEN MIN. R.F.=1)  AT K=  16, I=   1, J=  90


 TOTAL NUMBER OF POINT SOURCES/SINKS PRESENT IN THE FLOW MODEL =    30

 MAXIMUM STEPSIZE WHICH MEETS STABILITY CRITERION OF THE SINK & SOURCE TERM
 =  12.17    (WHEN MIN. R.F.=1)  AT K=  17, I=   1, J=  91

 MAXIMUM STEPSIZE WHICH MEETS STABILITY CRITERION OF THE DISPERSION TERM
 =  4.382    (WHEN MIN. R.F.=1)  AT K=  17, I=   1, J=  90
     1 CALLS TO GCG PACKAGE FOR TRANSPORT TIME STEP  80 IN FLOW TIME STEP   1 STRESS PERIOD   1
     9 TOTAL ITERATIONS
  MAXIMUM CONCENTRATION CHANGES FOR EACH ITERATION:
  MAX. CHANGE LAYER,ROW,COL MAX. CHANGE LAYER,ROW,COL MAX. CHANGE LAYER,ROW,COL MAX. CHANGE LAYER,ROW,COL MAX. CHANGE LAYER,ROW,COL
 ------------------------------------------------------------------------------------------------------------------------------------
   0.4916E-01 ( 20,  1, 87)  0.3379E-02 ( 19,  1, 87)  0.2270E-02 ( 18,  1, 87)  0.2209E-03 ( 16,  1, 88)  0.1424E-03 ( 17,  1, 89)
   0.3165E-04 ( 16,  1, 90)  0.9405E-05 ( 21,  1, 78)  0.1395E-04 ( 21,  1, 78)  0.7699E-06 ( 16,  1, 89)
     1 CALLS TO GCG PACKAGE FOR TRANSPORT TIME STEP  80 IN FLOW TIME STEP   1 STRESS PERIOD   1
     9 TOTAL ITERATIONS
  MAXIMUM CONCENTRATION CHANGES FOR EACH ITERATION:
  MAX. CHANGE LAYER,ROW,COL MAX. CHANGE LAYER,ROW,COL MAX. CHANGE LAYER,ROW,COL MAX. CHANGE LAYER,ROW,COL MAX. CHANGE LAYER,ROW,COL
 ------------------------------------------------------------------------------------------------------------------------------------
   0.6287E-01 ( 19,  1, 88)  0.1088E-01 ( 20,  1, 87)  0.1567E-02 ( 23,  1, 88)  0.4388E-03 ( 23,  1, 87)  0.9353E-04 ( 23,  1, 88)
   0.2354E-03 ( 23,  1, 88)  0.3619E-05 ( 16,  1, 89)  0.1294E-05 ( 16,  1, 89)  0.9003E-07 ( 17,  1, 89)



 >>>>>>>>>>>>>>>>>>>>>>>>>>>>>>>>>>>>>>>>>>>>>>>>>>>>>>>FOR COMPONENT NO. 01<<<<<<<<<<<<<<<<<<<<<<<<<<<<<<<<<<<<<<<<<<<<<<<<<<<<<<<


                                            -------------------------------------------
                                                      TRANSPORT STEP NO.   80
                                            -------------------------------------------

 TOTAL ELAPSED TIME SINCE BEGINNING OF SIMULATION =   4000.000    D   
 .....................................................................

                     CUMMULATIVE MASS BUDGETS AT END OF TRANSPORT STEP   80, TIME STEP    1, STRESS PERIOD    1
                     ------------------------------------------------------------------------------------------

                                                             IN                           OUT
                                                      ----------------             ----------------
                               CONSTANT CONCENTRATION:    0.000000                    0.000000    
                                        CONSTANT HEAD:   0.1584545E+09              -0.1583294E+09
                                                WELLS:    0.000000                    0.000000    
                                             RECHARGE:    0.000000                    0.000000    
                               1ST/0TH ORDER REACTION:    0.000000                    0.000000    
                                MASS STORAGE (SOLUTE):   0.2223719E+08              -0.2236237E+08
                            ---------------------------------------------------------------------------
                                              [TOTAL]:   0.1806919E+09 KG           -0.1806920E+09 KG  

                                                          NET (IN - OUT):   -39.32388    
                                                   DISCREPANCY (PERCENT):  -0.2176294E-04



 >>>>>>>>>>>>>>>>>>>>>>>>>>>>>>>>>>>>>>>>>>>>>>>>>>>>>>>FOR COMPONENT NO. 02<<<<<<<<<<<<<<<<<<<<<<<<<<<<<<<<<<<<<<<<<<<<<<<<<<<<<<<


                                            -------------------------------------------
                                                      TRANSPORT STEP NO.   80
                                            -------------------------------------------

 TOTAL ELAPSED TIME SINCE BEGINNING OF SIMULATION =   4000.000    D   
 .....................................................................

                     CUMMULATIVE MASS BUDGETS AT END OF TRANSPORT STEP   80, TIME STEP    1, STRESS PERIOD    1
                     ------------------------------------------------------------------------------------------

                                                             IN                           OUT
                                                      ----------------             ----------------
                               CONSTANT CONCENTRATION:    0.000000                    0.000000    
                                        CONSTANT HEAD:    0.000000                  -0.6270481E+10
                                                WELLS:    0.000000                    0.000000    
                                             RECHARGE:    0.000000                    0.000000    
                               1ST/0TH ORDER REACTION:   0.6620000E+11                0.000000    
                                MASS STORAGE (SOLUTE):   0.7266397E+09              -0.6065616E+11
                            ---------------------------------------------------------------------------
                                              [TOTAL]:   0.6692666E+11 KG           -0.6692666E+11 KG  

                                                          NET (IN - OUT):    1320.788    
                                                   DISCREPANCY (PERCENT):   0.1973486E-05
 
 SOLVING FOR HEAD 


     2 CALLS TO PCG ROUTINE FOR TIME STEP   1 IN STRESS PERIOD    1
     9 TOTAL ITERATIONS

 MAXIMUM HEAD CHANGE FOR EACH ITERATION (1 INDICATES THE FIRST INNER ITERATION):

    HEAD CHANGE    HEAD CHANGE    HEAD CHANGE    HEAD CHANGE    HEAD CHANGE 
   LAYER,ROW,COL  LAYER,ROW,COL  LAYER,ROW,COL  LAYER,ROW,COL  LAYER,ROW,COL
 ---------------------------------------------------------------------------
  1  0.1343E-01  0 -0.3880E-02  0 -0.2396E-02  0 -0.1268E-01  0  0.1397E-01
   ( 15,  1, 86)  ( 17,  1, 89)  (  8,  1, 12)  ( 11,  1, 54)  ( 11,  1, 54)
  0  0.2426E-02  0 -0.1297E-02  0 -0.5959E-03  1  0.6328E-03
   ( 11,  1, 67)  ( 11,  1, 67)  ( 11,  1, 49)  ( 11,  1, 67)

 MAXIMUM RESIDUAL FOR EACH ITERATION (1 INDICATES THE FIRST INNER ITERATION):

    RESIDUAL       RESIDUAL       RESIDUAL       RESIDUAL       RESIDUAL    
   LAYER,ROW,COL  LAYER,ROW,COL  LAYER,ROW,COL  LAYER,ROW,COL  LAYER,ROW,COL
 ---------------------------------------------------------------------------
  1  0.1369E+06  0 -0.9703E+05  0 -0.9504E+05  0 -0.2482E+05  0  -5329.    
   ( 21,  1, 89)  ( 19,  1, 89)  ( 19,  1, 89)  ( 19,  1, 89)  ( 17,  1, 87)
  0   2833.      0   2493.      0   965.4      1   848.7    
   ( 22,  1, 87)  ( 22,  1, 87)  ( 22,  1, 87)  ( 22,  1, 87)


 FLOW MODEL IS TRANSIENT
 FLOW MODEL CONTAINS CONSTANT-HEAD CELLS


 MAXIMUM STEPSIZE DURING WHICH ANY PARTICLE CANNOT MOVE MORE THAN ONE CELL
 =  12.83    (WHEN MIN. R.F.=1)  AT K=  17, I=   1, J=  90

 MAXIMUM STEPSIZE WHICH MEETS STABILITY CRITERION OF THE ADVECTION TERM
 (FOR PURE FINITE-DIFFERENCE OPTION, MIXELM=0) 
 =  8.027    (WHEN MIN. R.F.=1)  AT K=  16, I=   1, J=  90


 TOTAL NUMBER OF POINT SOURCES/SINKS PRESENT IN THE FLOW MODEL =    30

 MAXIMUM STEPSIZE WHICH MEETS STABILITY CRITERION OF THE SINK & SOURCE TERM
 =  12.18    (WHEN MIN. R.F.=1)  AT K=  17, I=   1, J=  91

 MAXIMUM STEPSIZE WHICH MEETS STABILITY CRITERION OF THE DISPERSION TERM
 =  4.020    (WHEN MIN. R.F.=1)  AT K=  17, I=   1, J=  90
     1 CALLS TO GCG PACKAGE FOR TRANSPORT TIME STEP  81 IN FLOW TIME STEP   1 STRESS PERIOD   1
     8 TOTAL ITERATIONS
     1 CALLS TO GCG PACKAGE FOR TRANSPORT TIME STEP  81 IN FLOW TIME STEP   1 STRESS PERIOD   1
     9 TOTAL ITERATIONS
 
 SOLVING FOR HEAD 


     2 CALLS TO PCG ROUTINE FOR TIME STEP   1 IN STRESS PERIOD    1
     8 TOTAL ITERATIONS

 MAXIMUM HEAD CHANGE FOR EACH ITERATION (1 INDICATES THE FIRST INNER ITERATION):

    HEAD CHANGE    HEAD CHANGE    HEAD CHANGE    HEAD CHANGE    HEAD CHANGE 
   LAYER,ROW,COL  LAYER,ROW,COL  LAYER,ROW,COL  LAYER,ROW,COL  LAYER,ROW,COL
 ---------------------------------------------------------------------------
  1 -0.1351E-01  0  0.3833E-02  0  0.2789E-02  0  0.9401E-02  0 -0.9189E-02
   ( 15,  1, 86)  ( 17,  1, 89)  (  8,  1, 12)  (  9,  1, 46)  (  8,  1, 46)
  0 -0.1321E-02  0  0.9687E-03  1 -0.6336E-03
   ( 11,  1, 49)  ( 11,  1, 50)  ( 11,  1, 51)

 MAXIMUM RESIDUAL FOR EACH ITERATION (1 INDICATES THE FIRST INNER ITERATION):

    RESIDUAL       RESIDUAL       RESIDUAL       RESIDUAL       RESIDUAL    
   LAYER,ROW,COL  LAYER,ROW,COL  LAYER,ROW,COL  LAYER,ROW,COL  LAYER,ROW,COL
 ---------------------------------------------------------------------------
  1 -0.1351E+06  0  0.9514E+05  0  0.9404E+05  0  0.3808E+05  0   6071.    
   ( 21,  1, 89)  ( 19,  1, 89)  ( 19,  1, 89)  ( 19,  1, 89)  ( 17,  1, 87)
  0  -2826.      0  -2429.      1  -2072.    
   ( 22,  1, 87)  ( 22,  1, 87)  ( 22,  1, 87)


 FLOW MODEL IS TRANSIENT
 FLOW MODEL CONTAINS CONSTANT-HEAD CELLS


 MAXIMUM STEPSIZE DURING WHICH ANY PARTICLE CANNOT MOVE MORE THAN ONE CELL
 =  13.21    (WHEN MIN. R.F.=1)  AT K=  17, I=   1, J=  90

 MAXIMUM STEPSIZE WHICH MEETS STABILITY CRITERION OF THE ADVECTION TERM
 (FOR PURE FINITE-DIFFERENCE OPTION, MIXELM=0) 
 =  8.000    (WHEN MIN. R.F.=1)  AT K=  16, I=   1, J=  90


 TOTAL NUMBER OF POINT SOURCES/SINKS PRESENT IN THE FLOW MODEL =    30

 MAXIMUM STEPSIZE WHICH MEETS STABILITY CRITERION OF THE SINK & SOURCE TERM
 =  12.15    (WHEN MIN. R.F.=1)  AT K=  17, I=   1, J=  91

 MAXIMUM STEPSIZE WHICH MEETS STABILITY CRITERION OF THE DISPERSION TERM
 =  4.368    (WHEN MIN. R.F.=1)  AT K=  17, I=   1, J=  90
     1 CALLS TO GCG PACKAGE FOR TRANSPORT TIME STEP  82 IN FLOW TIME STEP   1 STRESS PERIOD   1
    10 TOTAL ITERATIONS
     1 CALLS TO GCG PACKAGE FOR TRANSPORT TIME STEP  82 IN FLOW TIME STEP   1 STRESS PERIOD   1
     9 TOTAL ITERATIONS
 
 SOLVING FOR HEAD 


     2 CALLS TO PCG ROUTINE FOR TIME STEP   1 IN STRESS PERIOD    1
     8 TOTAL ITERATIONS

 MAXIMUM HEAD CHANGE FOR EACH ITERATION (1 INDICATES THE FIRST INNER ITERATION):

    HEAD CHANGE    HEAD CHANGE    HEAD CHANGE    HEAD CHANGE    HEAD CHANGE 
   LAYER,ROW,COL  LAYER,ROW,COL  LAYER,ROW,COL  LAYER,ROW,COL  LAYER,ROW,COL
 ---------------------------------------------------------------------------
  1  0.1392E-01  0 -0.6617E-02  0 -0.4387E-02  0  0.1380E-01  0 -0.1085E-01
   ( 15,  1, 86)  ( 11,  1, 51)  (  8,  1, 12)  ( 11,  1, 52)  ( 11,  1, 52)
  0 -0.2067E-02  0  0.9558E-03  1 -0.5036E-03
   ( 11,  1, 60)  (  8,  1, 44)  ( 11,  1, 55)

 MAXIMUM RESIDUAL FOR EACH ITERATION (1 INDICATES THE FIRST INNER ITERATION):

    RESIDUAL       RESIDUAL       RESIDUAL       RESIDUAL       RESIDUAL    
   LAYER,ROW,COL  LAYER,ROW,COL  LAYER,ROW,COL  LAYER,ROW,COL  LAYER,ROW,COL
 ---------------------------------------------------------------------------
  1  0.1344E+06  0 -0.9487E+05  0 -0.9418E+05  0 -0.6506E+05  0  -5588.    
   ( 21,  1, 89)  ( 19,  1, 89)  ( 19,  1, 89)  ( 19,  1, 89)  ( 17,  1, 87)
  0   2794.      0   2634.      1   1713.    
   ( 22,  1, 87)  ( 22,  1, 87)  ( 22,  1, 87)


 FLOW MODEL IS TRANSIENT
 FLOW MODEL CONTAINS CONSTANT-HEAD CELLS


 MAXIMUM STEPSIZE DURING WHICH ANY PARTICLE CANNOT MOVE MORE THAN ONE CELL
 =  12.89    (WHEN MIN. R.F.=1)  AT K=  17, I=   1, J=  90

 MAXIMUM STEPSIZE WHICH MEETS STABILITY CRITERION OF THE ADVECTION TERM
 (FOR PURE FINITE-DIFFERENCE OPTION, MIXELM=0) 
 =  8.050    (WHEN MIN. R.F.=1)  AT K=  16, I=   1, J=  90


 TOTAL NUMBER OF POINT SOURCES/SINKS PRESENT IN THE FLOW MODEL =    30

 MAXIMUM STEPSIZE WHICH MEETS STABILITY CRITERION OF THE SINK & SOURCE TERM
 =  12.27    (WHEN MIN. R.F.=1)  AT K=  17, I=   1, J=  91

 MAXIMUM STEPSIZE WHICH MEETS STABILITY CRITERION OF THE DISPERSION TERM
 =  4.044    (WHEN MIN. R.F.=1)  AT K=  17, I=   1, J=  90
     1 CALLS TO GCG PACKAGE FOR TRANSPORT TIME STEP  83 IN FLOW TIME STEP   1 STRESS PERIOD   1
     8 TOTAL ITERATIONS
     1 CALLS TO GCG PACKAGE FOR TRANSPORT TIME STEP  83 IN FLOW TIME STEP   1 STRESS PERIOD   1
    10 TOTAL ITERATIONS
 
 SOLVING FOR HEAD 


     2 CALLS TO PCG ROUTINE FOR TIME STEP   1 IN STRESS PERIOD    1
     9 TOTAL ITERATIONS

 MAXIMUM HEAD CHANGE FOR EACH ITERATION (1 INDICATES THE FIRST INNER ITERATION):

    HEAD CHANGE    HEAD CHANGE    HEAD CHANGE    HEAD CHANGE    HEAD CHANGE 
   LAYER,ROW,COL  LAYER,ROW,COL  LAYER,ROW,COL  LAYER,ROW,COL  LAYER,ROW,COL
 ---------------------------------------------------------------------------
  1 -0.1377E-01  0 -0.9728E-02  0  0.4690E-02  0  0.9448E-02  0 -0.5712E-02
   ( 15,  1, 86)  (  8,  1, 46)  (  7,  1, 12)  (  8,  1, 47)  (  8,  1, 46)
  0 -0.5510E-02  0  0.2024E-02  0  0.8712E-03  1  0.7093E-03
   ( 11,  1, 54)  ( 11,  1, 54)  ( 11,  1, 64)  ( 11,  1, 49)

 MAXIMUM RESIDUAL FOR EACH ITERATION (1 INDICATES THE FIRST INNER ITERATION):

    RESIDUAL       RESIDUAL       RESIDUAL       RESIDUAL       RESIDUAL    
   LAYER,ROW,COL  LAYER,ROW,COL  LAYER,ROW,COL  LAYER,ROW,COL  LAYER,ROW,COL
 ---------------------------------------------------------------------------
  1 -0.1384E+06  0  0.9840E+05  0  0.9772E+05  0  0.8304E+05  0  -6563.    
   ( 21,  1, 89)  ( 19,  1, 89)  ( 19,  1, 89)  ( 19,  1, 89)  ( 17,  1, 88)
  0  -3159.      0  -2589.      0  -1718.      1  -1504.    
   ( 17,  1, 88)  ( 22,  1, 87)  ( 22,  1, 87)  ( 22,  1, 87)


 FLOW MODEL IS TRANSIENT
 FLOW MODEL CONTAINS CONSTANT-HEAD CELLS


 MAXIMUM STEPSIZE DURING WHICH ANY PARTICLE CANNOT MOVE MORE THAN ONE CELL
 =  13.21    (WHEN MIN. R.F.=1)  AT K=  17, I=   1, J=  90

 MAXIMUM STEPSIZE WHICH MEETS STABILITY CRITERION OF THE ADVECTION TERM
 (FOR PURE FINITE-DIFFERENCE OPTION, MIXELM=0) 
 =  7.992    (WHEN MIN. R.F.=1)  AT K=  16, I=   1, J=  90


 TOTAL NUMBER OF POINT SOURCES/SINKS PRESENT IN THE FLOW MODEL =    30

 MAXIMUM STEPSIZE WHICH MEETS STABILITY CRITERION OF THE SINK & SOURCE TERM
 =  12.16    (WHEN MIN. R.F.=1)  AT K=  17, I=   1, J=  91

 MAXIMUM STEPSIZE WHICH MEETS STABILITY CRITERION OF THE DISPERSION TERM
 =  4.371    (WHEN MIN. R.F.=1)  AT K=  17, I=   1, J=  90
     1 CALLS TO GCG PACKAGE FOR TRANSPORT TIME STEP  84 IN FLOW TIME STEP   1 STRESS PERIOD   1
     9 TOTAL ITERATIONS
     1 CALLS TO GCG PACKAGE FOR TRANSPORT TIME STEP  84 IN FLOW TIME STEP   1 STRESS PERIOD   1
     9 TOTAL ITERATIONS
 
 SOLVING FOR HEAD 


     2 CALLS TO PCG ROUTINE FOR TIME STEP   1 IN STRESS PERIOD    1
     9 TOTAL ITERATIONS

 MAXIMUM HEAD CHANGE FOR EACH ITERATION (1 INDICATES THE FIRST INNER ITERATION):

    HEAD CHANGE    HEAD CHANGE    HEAD CHANGE    HEAD CHANGE    HEAD CHANGE 
   LAYER,ROW,COL  LAYER,ROW,COL  LAYER,ROW,COL  LAYER,ROW,COL  LAYER,ROW,COL
 ---------------------------------------------------------------------------
  1  0.1366E-01  0 -0.4178E-02  0 -0.3518E-02  0 -0.1174E-01  0  0.1215E-01
   ( 15,  1, 86)  ( 17,  1, 89)  (  8,  1, 12)  ( 11,  1, 49)  ( 11,  1, 49)
  0 -0.2746E-02  0  0.1127E-02  0 -0.5374E-03  1  0.2783E-03
   ( 11,  1, 54)  ( 11,  1, 54)  ( 11,  1, 38)  ( 11,  1, 70)

 MAXIMUM RESIDUAL FOR EACH ITERATION (1 INDICATES THE FIRST INNER ITERATION):

    RESIDUAL       RESIDUAL       RESIDUAL       RESIDUAL       RESIDUAL    
   LAYER,ROW,COL  LAYER,ROW,COL  LAYER,ROW,COL  LAYER,ROW,COL  LAYER,ROW,COL
 ---------------------------------------------------------------------------
  1  0.1377E+06  0 -0.9831E+05  0 -0.9740E+05  0 -0.2815E+05  0   5406.    
   ( 21,  1, 89)  ( 19,  1, 89)  ( 19,  1, 89)  ( 19,  1, 89)  ( 17,  1, 88)
  0   2743.      0   2432.      0   808.2      1   716.9    
   ( 22,  1, 87)  ( 22,  1, 87)  ( 22,  1, 87)  ( 22,  1, 87)


 FLOW MODEL IS TRANSIENT
 FLOW MODEL CONTAINS CONSTANT-HEAD CELLS


 MAXIMUM STEPSIZE DURING WHICH ANY PARTICLE CANNOT MOVE MORE THAN ONE CELL
 =  12.84    (WHEN MIN. R.F.=1)  AT K=  17, I=   1, J=  90

 MAXIMUM STEPSIZE WHICH MEETS STABILITY CRITERION OF THE ADVECTION TERM
 (FOR PURE FINITE-DIFFERENCE OPTION, MIXELM=0) 
 =  8.034    (WHEN MIN. R.F.=1)  AT K=  16, I=   1, J=  90


 TOTAL NUMBER OF POINT SOURCES/SINKS PRESENT IN THE FLOW MODEL =    30

 MAXIMUM STEPSIZE WHICH MEETS STABILITY CRITERION OF THE SINK & SOURCE TERM
 =  12.21    (WHEN MIN. R.F.=1)  AT K=  17, I=   1, J=  91

 MAXIMUM STEPSIZE WHICH MEETS STABILITY CRITERION OF THE DISPERSION TERM
 =  4.022    (WHEN MIN. R.F.=1)  AT K=  17, I=   1, J=  90
     1 CALLS TO GCG PACKAGE FOR TRANSPORT TIME STEP  85 IN FLOW TIME STEP   1 STRESS PERIOD   1
     8 TOTAL ITERATIONS
  MAXIMUM CONCENTRATION CHANGES FOR EACH ITERATION:
  MAX. CHANGE LAYER,ROW,COL MAX. CHANGE LAYER,ROW,COL MAX. CHANGE LAYER,ROW,COL MAX. CHANGE LAYER,ROW,COL MAX. CHANGE LAYER,ROW,COL
 ------------------------------------------------------------------------------------------------------------------------------------
   0.5246E-01 ( 20,  1, 87)  0.4337E-02 ( 19,  1, 89)  0.2080E-02 ( 17,  1, 86)  0.4869E-03 ( 20,  1, 89)  0.9259E-04 ( 16,  1, 89)
   0.2087E-04 ( 20,  1, 89)  0.2268E-04 ( 16,  1, 90)  0.6953E-06 ( 17,  1, 90)
     1 CALLS TO GCG PACKAGE FOR TRANSPORT TIME STEP  85 IN FLOW TIME STEP   1 STRESS PERIOD   1
    10 TOTAL ITERATIONS
  MAXIMUM CONCENTRATION CHANGES FOR EACH ITERATION:
  MAX. CHANGE LAYER,ROW,COL MAX. CHANGE LAYER,ROW,COL MAX. CHANGE LAYER,ROW,COL MAX. CHANGE LAYER,ROW,COL MAX. CHANGE LAYER,ROW,COL
 ------------------------------------------------------------------------------------------------------------------------------------
   0.6711E-01 ( 19,  1, 89)  0.1049E-01 ( 20,  1, 87)  0.1433E-02 ( 23,  1, 87)  0.4491E-03 ( 17,  1, 90)  0.7981E-04 ( 23,  1, 86)
   0.5454E-04 ( 23,  1, 86)  0.3522E-05 ( 23,  1, 86)  0.9626E-05 ( 23,  1, 86)  0.1286E-05 ( 23,  1, 86)  0.8555E-07 ( 17,  1, 90)
 
 SOLVING FOR HEAD 


     2 CALLS TO PCG ROUTINE FOR TIME STEP   1 IN STRESS PERIOD    1
     9 TOTAL ITERATIONS

 MAXIMUM HEAD CHANGE FOR EACH ITERATION (1 INDICATES THE FIRST INNER ITERATION):

    HEAD CHANGE    HEAD CHANGE    HEAD CHANGE    HEAD CHANGE    HEAD CHANGE 
   LAYER,ROW,COL  LAYER,ROW,COL  LAYER,ROW,COL  LAYER,ROW,COL  LAYER,ROW,COL
 ---------------------------------------------------------------------------
  1 -0.1348E-01  0  0.3942E-02  0  0.3110E-02  0  0.9039E-02  0 -0.8879E-02
   ( 15,  1, 86)  ( 17,  1, 89)  (  8,  1, 12)  (  9,  1, 48)  (  6,  1, 47)
  0  0.1029E-02  0  0.1354E-02  0  0.6605E-03  1 -0.7803E-03
   ( 11,  1, 68)  ( 11,  1, 53)  ( 11,  1, 70)  ( 11,  1, 70)

 MAXIMUM RESIDUAL FOR EACH ITERATION (1 INDICATES THE FIRST INNER ITERATION):

    RESIDUAL       RESIDUAL       RESIDUAL       RESIDUAL       RESIDUAL    
   LAYER,ROW,COL  LAYER,ROW,COL  LAYER,ROW,COL  LAYER,ROW,COL  LAYER,ROW,COL
 ---------------------------------------------------------------------------
  1 -0.1340E+06  0  0.9459E+05  0  0.9363E+05  0  0.3703E+05  0   6121.    
   ( 21,  1, 89)  ( 19,  1, 89)  ( 19,  1, 89)  ( 19,  1, 89)  ( 17,  1, 87)
  0  -2859.      0  -2168.      0  -795.1      1  -669.6    
   ( 22,  1, 87)  ( 22,  1, 87)  ( 22,  1, 87)  ( 22,  1, 87)


 FLOW MODEL IS TRANSIENT
 FLOW MODEL CONTAINS CONSTANT-HEAD CELLS


 MAXIMUM STEPSIZE DURING WHICH ANY PARTICLE CANNOT MOVE MORE THAN ONE CELL
 =  13.23    (WHEN MIN. R.F.=1)  AT K=  17, I=   1, J=  90

 MAXIMUM STEPSIZE WHICH MEETS STABILITY CRITERION OF THE ADVECTION TERM
 (FOR PURE FINITE-DIFFERENCE OPTION, MIXELM=0) 
 =  8.002    (WHEN MIN. R.F.=1)  AT K=  16, I=   1, J=  90


 TOTAL NUMBER OF POINT SOURCES/SINKS PRESENT IN THE FLOW MODEL =    30

 MAXIMUM STEPSIZE WHICH MEETS STABILITY CRITERION OF THE SINK & SOURCE TERM
 =  12.17    (WHEN MIN. R.F.=1)  AT K=  17, I=   1, J=  91

 MAXIMUM STEPSIZE WHICH MEETS STABILITY CRITERION OF THE DISPERSION TERM
 =  4.379    (WHEN MIN. R.F.=1)  AT K=  17, I=   1, J=  90
     1 CALLS TO GCG PACKAGE FOR TRANSPORT TIME STEP  86 IN FLOW TIME STEP   1 STRESS PERIOD   1
     9 TOTAL ITERATIONS
     1 CALLS TO GCG PACKAGE FOR TRANSPORT TIME STEP  86 IN FLOW TIME STEP   1 STRESS PERIOD   1
     9 TOTAL ITERATIONS
 
 SOLVING FOR HEAD 


     2 CALLS TO PCG ROUTINE FOR TIME STEP   1 IN STRESS PERIOD    1
     9 TOTAL ITERATIONS

 MAXIMUM HEAD CHANGE FOR EACH ITERATION (1 INDICATES THE FIRST INNER ITERATION):

    HEAD CHANGE    HEAD CHANGE    HEAD CHANGE    HEAD CHANGE    HEAD CHANGE 
   LAYER,ROW,COL  LAYER,ROW,COL  LAYER,ROW,COL  LAYER,ROW,COL  LAYER,ROW,COL
 ---------------------------------------------------------------------------
  1  0.1341E-01  0 -0.3761E-02  0 -0.2352E-02  0 -0.1017E-01  0  0.1109E-01
   ( 15,  1, 86)  ( 17,  1, 89)  (  8,  1, 12)  ( 11,  1, 51)  ( 11,  1, 52)
  0 -0.1798E-02  0 -0.1303E-02  0 -0.5867E-03  1  0.3514E-03
   ( 11,  1, 53)  ( 11,  1, 70)  ( 11,  1, 40)  ( 11,  1, 70)

 MAXIMUM RESIDUAL FOR EACH ITERATION (1 INDICATES THE FIRST INNER ITERATION):

    RESIDUAL       RESIDUAL       RESIDUAL       RESIDUAL       RESIDUAL    
   LAYER,ROW,COL  LAYER,ROW,COL  LAYER,ROW,COL  LAYER,ROW,COL  LAYER,ROW,COL
 ---------------------------------------------------------------------------
  1  0.1341E+06  0 -0.9402E+05  0 -0.9217E+05  0 -0.2944E+05  0  -5507.    
   ( 21,  1, 89)  ( 19,  1, 89)  ( 19,  1, 89)  ( 19,  1, 89)  ( 17,  1, 87)
  0   2888.      0   2216.      0   788.0      1   689.6    
   ( 22,  1, 87)  ( 22,  1, 87)  ( 22,  1, 87)  ( 22,  1, 87)


 FLOW MODEL IS TRANSIENT
 FLOW MODEL CONTAINS CONSTANT-HEAD CELLS


 MAXIMUM STEPSIZE DURING WHICH ANY PARTICLE CANNOT MOVE MORE THAN ONE CELL
 =  12.85    (WHEN MIN. R.F.=1)  AT K=  17, I=   1, J=  90

 MAXIMUM STEPSIZE WHICH MEETS STABILITY CRITERION OF THE ADVECTION TERM
 (FOR PURE FINITE-DIFFERENCE OPTION, MIXELM=0) 
 =  8.029    (WHEN MIN. R.F.=1)  AT K=  16, I=   1, J=  90


 TOTAL NUMBER OF POINT SOURCES/SINKS PRESENT IN THE FLOW MODEL =    30

 MAXIMUM STEPSIZE WHICH MEETS STABILITY CRITERION OF THE SINK & SOURCE TERM
 =  12.19    (WHEN MIN. R.F.=1)  AT K=  17, I=   1, J=  91

 MAXIMUM STEPSIZE WHICH MEETS STABILITY CRITERION OF THE DISPERSION TERM
 =  4.027    (WHEN MIN. R.F.=1)  AT K=  17, I=   1, J=  90
     1 CALLS TO GCG PACKAGE FOR TRANSPORT TIME STEP  87 IN FLOW TIME STEP   1 STRESS PERIOD   1
     8 TOTAL ITERATIONS
     1 CALLS TO GCG PACKAGE FOR TRANSPORT TIME STEP  87 IN FLOW TIME STEP   1 STRESS PERIOD   1
     9 TOTAL ITERATIONS
 
 SOLVING FOR HEAD 


     2 CALLS TO PCG ROUTINE FOR TIME STEP   1 IN STRESS PERIOD    1
     9 TOTAL ITERATIONS

 MAXIMUM HEAD CHANGE FOR EACH ITERATION (1 INDICATES THE FIRST INNER ITERATION):

    HEAD CHANGE    HEAD CHANGE    HEAD CHANGE    HEAD CHANGE    HEAD CHANGE 
   LAYER,ROW,COL  LAYER,ROW,COL  LAYER,ROW,COL  LAYER,ROW,COL  LAYER,ROW,COL
 ---------------------------------------------------------------------------
  1 -0.1347E-01  0  0.3735E-02  0  0.2432E-02  0  0.8922E-02  0 -0.8863E-02
   ( 15,  1, 86)  ( 17,  1, 89)  (  7,  1, 12)  (  7,  1, 48)  (  7,  1, 48)
  0 -0.1287E-02  0  0.1316E-02  0  0.8009E-03  1 -0.7520E-03
   ( 11,  1, 53)  ( 11,  1, 53)  ( 11,  1, 70)  ( 11,  1, 70)

 MAXIMUM RESIDUAL FOR EACH ITERATION (1 INDICATES THE FIRST INNER ITERATION):

    RESIDUAL       RESIDUAL       RESIDUAL       RESIDUAL       RESIDUAL    
   LAYER,ROW,COL  LAYER,ROW,COL  LAYER,ROW,COL  LAYER,ROW,COL  LAYER,ROW,COL
 ---------------------------------------------------------------------------
  1 -0.1347E+06  0  0.9504E+05  0  0.9364E+05  0  0.3911E+05  0   6156.    
   ( 21,  1, 89)  ( 19,  1, 89)  ( 19,  1, 89)  ( 19,  1, 89)  ( 17,  1, 87)
  0  -2835.      0  -2228.      0  -830.3      1  -703.0    
   ( 22,  1, 87)  ( 22,  1, 87)  ( 22,  1, 87)  ( 22,  1, 87)


 FLOW MODEL IS TRANSIENT
 FLOW MODEL CONTAINS CONSTANT-HEAD CELLS


 MAXIMUM STEPSIZE DURING WHICH ANY PARTICLE CANNOT MOVE MORE THAN ONE CELL
 =  13.20    (WHEN MIN. R.F.=1)  AT K=  17, I=   1, J=  90

 MAXIMUM STEPSIZE WHICH MEETS STABILITY CRITERION OF THE ADVECTION TERM
 (FOR PURE FINITE-DIFFERENCE OPTION, MIXELM=0) 
 =  7.995    (WHEN MIN. R.F.=1)  AT K=  16, I=   1, J=  90


 TOTAL NUMBER OF POINT SOURCES/SINKS PRESENT IN THE FLOW MODEL =    30

 MAXIMUM STEPSIZE WHICH MEETS STABILITY CRITERION OF THE SINK & SOURCE TERM
 =  12.16    (WHEN MIN. R.F.=1)  AT K=  17, I=   1, J=  91

 MAXIMUM STEPSIZE WHICH MEETS STABILITY CRITERION OF THE DISPERSION TERM
 =  4.360    (WHEN MIN. R.F.=1)  AT K=  17, I=   1, J=  90
     1 CALLS TO GCG PACKAGE FOR TRANSPORT TIME STEP  88 IN FLOW TIME STEP   1 STRESS PERIOD   1
     9 TOTAL ITERATIONS
     1 CALLS TO GCG PACKAGE FOR TRANSPORT TIME STEP  88 IN FLOW TIME STEP   1 STRESS PERIOD   1
     8 TOTAL ITERATIONS
 
 SOLVING FOR HEAD 


     2 CALLS TO PCG ROUTINE FOR TIME STEP   1 IN STRESS PERIOD    1
     9 TOTAL ITERATIONS

 MAXIMUM HEAD CHANGE FOR EACH ITERATION (1 INDICATES THE FIRST INNER ITERATION):

    HEAD CHANGE    HEAD CHANGE    HEAD CHANGE    HEAD CHANGE    HEAD CHANGE 
   LAYER,ROW,COL  LAYER,ROW,COL  LAYER,ROW,COL  LAYER,ROW,COL  LAYER,ROW,COL
 ---------------------------------------------------------------------------
  1  0.1356E-01  0 -0.3688E-02  0 -0.2409E-02  0 -0.1217E-01  0  0.1257E-01
   ( 15,  1, 86)  ( 17,  1, 89)  (  8,  1, 12)  ( 11,  1, 51)  ( 11,  1, 51)
  0 -0.1426E-02  0 -0.1504E-02  0 -0.7240E-03  1  0.5037E-03
   ( 11,  1, 54)  ( 11,  1, 70)  ( 11,  1, 57)  ( 11,  1, 70)

 MAXIMUM RESIDUAL FOR EACH ITERATION (1 INDICATES THE FIRST INNER ITERATION):

    RESIDUAL       RESIDUAL       RESIDUAL       RESIDUAL       RESIDUAL    
   LAYER,ROW,COL  LAYER,ROW,COL  LAYER,ROW,COL  LAYER,ROW,COL  LAYER,ROW,COL
 ---------------------------------------------------------------------------
  1  0.1321E+06  0 -0.9228E+05  0 -0.9092E+05  0 -0.2959E+05  0  -5447.    
   ( 21,  1, 89)  ( 19,  1, 89)  ( 19,  1, 89)  ( 19,  1, 89)  ( 17,  1, 87)
  0   2911.      0   2078.      0   744.9      1   635.5    
   ( 22,  1, 87)  ( 22,  1, 87)  ( 22,  1, 87)  ( 22,  1, 87)


 FLOW MODEL IS TRANSIENT
 FLOW MODEL CONTAINS CONSTANT-HEAD CELLS


 MAXIMUM STEPSIZE DURING WHICH ANY PARTICLE CANNOT MOVE MORE THAN ONE CELL
 =  12.85    (WHEN MIN. R.F.=1)  AT K=  17, I=   1, J=  90

 MAXIMUM STEPSIZE WHICH MEETS STABILITY CRITERION OF THE ADVECTION TERM
 (FOR PURE FINITE-DIFFERENCE OPTION, MIXELM=0) 
 =  8.028    (WHEN MIN. R.F.=1)  AT K=  16, I=   1, J=  90


 TOTAL NUMBER OF POINT SOURCES/SINKS PRESENT IN THE FLOW MODEL =    30

 MAXIMUM STEPSIZE WHICH MEETS STABILITY CRITERION OF THE SINK & SOURCE TERM
 =  12.19    (WHEN MIN. R.F.=1)  AT K=  17, I=   1, J=  91

 MAXIMUM STEPSIZE WHICH MEETS STABILITY CRITERION OF THE DISPERSION TERM
 =  4.031    (WHEN MIN. R.F.=1)  AT K=  17, I=   1, J=  90
     1 CALLS TO GCG PACKAGE FOR TRANSPORT TIME STEP  89 IN FLOW TIME STEP   1 STRESS PERIOD   1
     8 TOTAL ITERATIONS
     1 CALLS TO GCG PACKAGE FOR TRANSPORT TIME STEP  89 IN FLOW TIME STEP   1 STRESS PERIOD   1
     7 TOTAL ITERATIONS
 
 SOLVING FOR HEAD 


     2 CALLS TO PCG ROUTINE FOR TIME STEP   1 IN STRESS PERIOD    1
     8 TOTAL ITERATIONS

 MAXIMUM HEAD CHANGE FOR EACH ITERATION (1 INDICATES THE FIRST INNER ITERATION):

    HEAD CHANGE    HEAD CHANGE    HEAD CHANGE    HEAD CHANGE    HEAD CHANGE 
   LAYER,ROW,COL  LAYER,ROW,COL  LAYER,ROW,COL  LAYER,ROW,COL  LAYER,ROW,COL
 ---------------------------------------------------------------------------
  1 -0.1346E-01  0  0.3657E-02  0  0.2903E-02  0  0.8412E-02  0 -0.8227E-02
   ( 15,  1, 86)  ( 17,  1, 89)  (  7,  1, 12)  ( 11,  1, 67)  ( 11,  1, 67)
  0 -0.1346E-02  0  0.9413E-03  1  0.8701E-03
   ( 11,  1, 49)  ( 11,  1, 67)  ( 11,  1, 59)

 MAXIMUM RESIDUAL FOR EACH ITERATION (1 INDICATES THE FIRST INNER ITERATION):

    RESIDUAL       RESIDUAL       RESIDUAL       RESIDUAL       RESIDUAL    
   LAYER,ROW,COL  LAYER,ROW,COL  LAYER,ROW,COL  LAYER,ROW,COL  LAYER,ROW,COL
 ---------------------------------------------------------------------------
  1 -0.1333E+06  0  0.9402E+05  0  0.8893E+05  0  0.3671E+05  0   6039.    
   ( 21,  1, 89)  ( 19,  1, 89)  ( 19,  1, 89)  ( 19,  1, 89)  ( 17,  1, 87)
  0  -2850.      0  -2497.      1  -2061.    
   ( 22,  1, 87)  ( 22,  1, 87)  ( 22,  1, 87)


 FLOW MODEL IS TRANSIENT
 FLOW MODEL CONTAINS CONSTANT-HEAD CELLS


 MAXIMUM STEPSIZE DURING WHICH ANY PARTICLE CANNOT MOVE MORE THAN ONE CELL
 =  13.21    (WHEN MIN. R.F.=1)  AT K=  17, I=   1, J=  90

 MAXIMUM STEPSIZE WHICH MEETS STABILITY CRITERION OF THE ADVECTION TERM
 (FOR PURE FINITE-DIFFERENCE OPTION, MIXELM=0) 
 =  8.000    (WHEN MIN. R.F.=1)  AT K=  16, I=   1, J=  90


 TOTAL NUMBER OF POINT SOURCES/SINKS PRESENT IN THE FLOW MODEL =    30

 MAXIMUM STEPSIZE WHICH MEETS STABILITY CRITERION OF THE SINK & SOURCE TERM
 =  12.16    (WHEN MIN. R.F.=1)  AT K=  17, I=   1, J=  91

 MAXIMUM STEPSIZE WHICH MEETS STABILITY CRITERION OF THE DISPERSION TERM
 =  4.359    (WHEN MIN. R.F.=1)  AT K=  17, I=   1, J=  90
     1 CALLS TO GCG PACKAGE FOR TRANSPORT TIME STEP  90 IN FLOW TIME STEP   1 STRESS PERIOD   1
     8 TOTAL ITERATIONS
  MAXIMUM CONCENTRATION CHANGES FOR EACH ITERATION:
  MAX. CHANGE LAYER,ROW,COL MAX. CHANGE LAYER,ROW,COL MAX. CHANGE LAYER,ROW,COL MAX. CHANGE LAYER,ROW,COL MAX. CHANGE LAYER,ROW,COL
 ------------------------------------------------------------------------------------------------------------------------------------
   0.4903E-01 ( 20,  1, 87)  0.3343E-02 ( 19,  1, 87)  0.2183E-02 ( 18,  1, 87)  0.2178E-03 ( 16,  1, 88)  0.1461E-03 ( 16,  1, 89)
   0.2785E-04 ( 16,  1, 90)  0.3556E-05 ( 21,  1, 78)  0.3294E-06 ( 16,  1, 89)
     1 CALLS TO GCG PACKAGE FOR TRANSPORT TIME STEP  90 IN FLOW TIME STEP   1 STRESS PERIOD   1
     8 TOTAL ITERATIONS
  MAXIMUM CONCENTRATION CHANGES FOR EACH ITERATION:
  MAX. CHANGE LAYER,ROW,COL MAX. CHANGE LAYER,ROW,COL MAX. CHANGE LAYER,ROW,COL MAX. CHANGE LAYER,ROW,COL MAX. CHANGE LAYER,ROW,COL
 ------------------------------------------------------------------------------------------------------------------------------------
   0.6126E-01 ( 19,  1, 88)  0.1051E-01 ( 20,  1, 87)  0.1293E-02 ( 23,  1, 88)  0.4895E-03 ( 23,  1, 85)  0.5233E-03 ( 23,  1, 88)
   0.3547E-03 ( 23,  1, 88)  0.3593E-05 ( 17,  1, 90)  0.9702E-06 ( 18,  1, 90)



 >>>>>>>>>>>>>>>>>>>>>>>>>>>>>>>>>>>>>>>>>>>>>>>>>>>>>>>FOR COMPONENT NO. 01<<<<<<<<<<<<<<<<<<<<<<<<<<<<<<<<<<<<<<<<<<<<<<<<<<<<<<<


                                            -------------------------------------------
                                                      TRANSPORT STEP NO.   90
                                            -------------------------------------------

 TOTAL ELAPSED TIME SINCE BEGINNING OF SIMULATION =   4500.000    D   
 .....................................................................

                     CUMMULATIVE MASS BUDGETS AT END OF TRANSPORT STEP   90, TIME STEP    1, STRESS PERIOD    1
                     ------------------------------------------------------------------------------------------

                                                             IN                           OUT
                                                      ----------------             ----------------
                               CONSTANT CONCENTRATION:    0.000000                    0.000000    
                                        CONSTANT HEAD:   0.1782460E+09              -0.1781126E+09
                                                WELLS:    0.000000                    0.000000    
                                             RECHARGE:    0.000000                    0.000000    
                               1ST/0TH ORDER REACTION:    0.000000                    0.000000    
                                MASS STORAGE (SOLUTE):   0.2500439E+08              -0.2513779E+08
                            ---------------------------------------------------------------------------
                                              [TOTAL]:   0.2032506E+09 KG           -0.2032506E+09 KG  

                                                          NET (IN - OUT):   -37.95923    
                                                   DISCREPANCY (PERCENT):  -0.1867607E-04



 >>>>>>>>>>>>>>>>>>>>>>>>>>>>>>>>>>>>>>>>>>>>>>>>>>>>>>>FOR COMPONENT NO. 02<<<<<<<<<<<<<<<<<<<<<<<<<<<<<<<<<<<<<<<<<<<<<<<<<<<<<<<


                                            -------------------------------------------
                                                      TRANSPORT STEP NO.   90
                                            -------------------------------------------

 TOTAL ELAPSED TIME SINCE BEGINNING OF SIMULATION =   4500.000    D   
 .....................................................................

                     CUMMULATIVE MASS BUDGETS AT END OF TRANSPORT STEP   90, TIME STEP    1, STRESS PERIOD    1
                     ------------------------------------------------------------------------------------------

                                                             IN                           OUT
                                                      ----------------             ----------------
                               CONSTANT CONCENTRATION:    0.000000                    0.000000    
                                        CONSTANT HEAD:    0.000000                  -0.7705154E+10
                                                WELLS:    0.000000                    0.000000    
                                             RECHARGE:    0.000000                    0.000000    
                               1ST/0TH ORDER REACTION:   0.7447500E+11                0.000000    
                                MASS STORAGE (SOLUTE):   0.9869902E+09              -0.6775683E+11
                            ---------------------------------------------------------------------------
                                              [TOTAL]:   0.7546202E+11 KG           -0.7546202E+11 KG  

                                                          NET (IN - OUT):    1345.947    
                                                   DISCREPANCY (PERCENT):   0.1783609E-05
 
 SOLVING FOR HEAD 


     2 CALLS TO PCG ROUTINE FOR TIME STEP   1 IN STRESS PERIOD    1
     8 TOTAL ITERATIONS

 MAXIMUM HEAD CHANGE FOR EACH ITERATION (1 INDICATES THE FIRST INNER ITERATION):

    HEAD CHANGE    HEAD CHANGE    HEAD CHANGE    HEAD CHANGE    HEAD CHANGE 
   LAYER,ROW,COL  LAYER,ROW,COL  LAYER,ROW,COL  LAYER,ROW,COL  LAYER,ROW,COL
 ---------------------------------------------------------------------------
  1  0.1388E-01  0  0.7816E-02  0 -0.4350E-02  0 -0.1584E-01  0  0.1277E-01
   ( 15,  1, 86)  ( 11,  1, 59)  (  8,  1, 12)  ( 11,  1, 59)  ( 11,  1, 59)
  0 -0.3366E-02  0  0.8801E-03  1 -0.7236E-03
   ( 11,  1, 66)  (  7,  1, 41)  ( 11,  1, 70)

 MAXIMUM RESIDUAL FOR EACH ITERATION (1 INDICATES THE FIRST INNER ITERATION):

    RESIDUAL       RESIDUAL       RESIDUAL       RESIDUAL       RESIDUAL    
   LAYER,ROW,COL  LAYER,ROW,COL  LAYER,ROW,COL  LAYER,ROW,COL  LAYER,ROW,COL
 ---------------------------------------------------------------------------
  1  0.1338E+06  0 -0.9441E+05  0 -0.9372E+05  0 -0.6376E+05  0  -5496.    
   ( 21,  1, 89)  ( 19,  1, 89)  ( 19,  1, 89)  ( 19,  1, 89)  ( 17,  1, 87)
  0   2794.      0   2641.      1   1640.    
   ( 17,  1, 88)  ( 22,  1, 87)  ( 22,  1, 87)


 FLOW MODEL IS TRANSIENT
 FLOW MODEL CONTAINS CONSTANT-HEAD CELLS


 MAXIMUM STEPSIZE DURING WHICH ANY PARTICLE CANNOT MOVE MORE THAN ONE CELL
 =  12.90    (WHEN MIN. R.F.=1)  AT K=  17, I=   1, J=  90

 MAXIMUM STEPSIZE WHICH MEETS STABILITY CRITERION OF THE ADVECTION TERM
 (FOR PURE FINITE-DIFFERENCE OPTION, MIXELM=0) 
 =  8.049    (WHEN MIN. R.F.=1)  AT K=  16, I=   1, J=  90


 TOTAL NUMBER OF POINT SOURCES/SINKS PRESENT IN THE FLOW MODEL =    30

 MAXIMUM STEPSIZE WHICH MEETS STABILITY CRITERION OF THE SINK & SOURCE TERM
 =  12.27    (WHEN MIN. R.F.=1)  AT K=  17, I=   1, J=  91

 MAXIMUM STEPSIZE WHICH MEETS STABILITY CRITERION OF THE DISPERSION TERM
 =  4.046    (WHEN MIN. R.F.=1)  AT K=  17, I=   1, J=  90
     1 CALLS TO GCG PACKAGE FOR TRANSPORT TIME STEP  91 IN FLOW TIME STEP   1 STRESS PERIOD   1
     8 TOTAL ITERATIONS
     1 CALLS TO GCG PACKAGE FOR TRANSPORT TIME STEP  91 IN FLOW TIME STEP   1 STRESS PERIOD   1
     9 TOTAL ITERATIONS
 
 SOLVING FOR HEAD 


     2 CALLS TO PCG ROUTINE FOR TIME STEP   1 IN STRESS PERIOD    1
     9 TOTAL ITERATIONS

 MAXIMUM HEAD CHANGE FOR EACH ITERATION (1 INDICATES THE FIRST INNER ITERATION):

    HEAD CHANGE    HEAD CHANGE    HEAD CHANGE    HEAD CHANGE    HEAD CHANGE 
   LAYER,ROW,COL  LAYER,ROW,COL  LAYER,ROW,COL  LAYER,ROW,COL  LAYER,ROW,COL
 ---------------------------------------------------------------------------
  1 -0.1370E-01  0 -0.1051E-01  0  0.4129E-02  0  0.1175E-01  0 -0.7978E-02
   ( 15,  1, 86)  ( 11,  1, 70)  (  7,  1, 12)  ( 11,  1, 70)  ( 11,  1, 67)
  0  0.6420E-02  0  0.1401E-02  0  0.9162E-03  1  0.8397E-03
   ( 11,  1, 65)  ( 11,  1, 69)  ( 11,  1, 60)  ( 11,  1, 66)

 MAXIMUM RESIDUAL FOR EACH ITERATION (1 INDICATES THE FIRST INNER ITERATION):

    RESIDUAL       RESIDUAL       RESIDUAL       RESIDUAL       RESIDUAL    
   LAYER,ROW,COL  LAYER,ROW,COL  LAYER,ROW,COL  LAYER,ROW,COL  LAYER,ROW,COL
 ---------------------------------------------------------------------------
  1 -0.1367E+06  0  0.9721E+05  0  0.9643E+05  0  0.7828E+05  0   7234.    
   ( 21,  1, 89)  ( 19,  1, 89)  ( 19,  1, 89)  ( 19,  1, 89)  ( 17,  1, 87)
  0  -3234.      0  -2598.      0  -2016.      1  -1720.    
   ( 17,  1, 88)  ( 22,  1, 87)  ( 22,  1, 87)  ( 22,  1, 87)


 FLOW MODEL IS TRANSIENT
 FLOW MODEL CONTAINS CONSTANT-HEAD CELLS


 MAXIMUM STEPSIZE DURING WHICH ANY PARTICLE CANNOT MOVE MORE THAN ONE CELL
 =  13.20    (WHEN MIN. R.F.=1)  AT K=  17, I=   1, J=  90

 MAXIMUM STEPSIZE WHICH MEETS STABILITY CRITERION OF THE ADVECTION TERM
 (FOR PURE FINITE-DIFFERENCE OPTION, MIXELM=0) 
 =  7.992    (WHEN MIN. R.F.=1)  AT K=  16, I=   1, J=  90


 TOTAL NUMBER OF POINT SOURCES/SINKS PRESENT IN THE FLOW MODEL =    30

 MAXIMUM STEPSIZE WHICH MEETS STABILITY CRITERION OF THE SINK & SOURCE TERM
 =  12.16    (WHEN MIN. R.F.=1)  AT K=  17, I=   1, J=  91

 MAXIMUM STEPSIZE WHICH MEETS STABILITY CRITERION OF THE DISPERSION TERM
 =  4.362    (WHEN MIN. R.F.=1)  AT K=  17, I=   1, J=  90
     1 CALLS TO GCG PACKAGE FOR TRANSPORT TIME STEP  92 IN FLOW TIME STEP   1 STRESS PERIOD   1
     9 TOTAL ITERATIONS
     1 CALLS TO GCG PACKAGE FOR TRANSPORT TIME STEP  92 IN FLOW TIME STEP   1 STRESS PERIOD   1
     9 TOTAL ITERATIONS
 
 SOLVING FOR HEAD 


     2 CALLS TO PCG ROUTINE FOR TIME STEP   1 IN STRESS PERIOD    1
     9 TOTAL ITERATIONS

 MAXIMUM HEAD CHANGE FOR EACH ITERATION (1 INDICATES THE FIRST INNER ITERATION):

    HEAD CHANGE    HEAD CHANGE    HEAD CHANGE    HEAD CHANGE    HEAD CHANGE 
   LAYER,ROW,COL  LAYER,ROW,COL  LAYER,ROW,COL  LAYER,ROW,COL  LAYER,ROW,COL
 ---------------------------------------------------------------------------
  1  0.1367E-01  0 -0.4850E-02  0 -0.3873E-02  0  0.1776E-01  0 -0.1632E-01
   ( 15,  1, 86)  ( 11,  1, 59)  (  8,  1, 12)  ( 11,  1, 59)  ( 11,  1, 59)
  0 -0.3069E-02  0 -0.1289E-02  0  0.5142E-03  1 -0.5660E-03
   ( 11,  1, 70)  ( 11,  1, 65)  ( 11,  1, 70)  ( 11,  1, 69)

 MAXIMUM RESIDUAL FOR EACH ITERATION (1 INDICATES THE FIRST INNER ITERATION):

    RESIDUAL       RESIDUAL       RESIDUAL       RESIDUAL       RESIDUAL    
   LAYER,ROW,COL  LAYER,ROW,COL  LAYER,ROW,COL  LAYER,ROW,COL  LAYER,ROW,COL
 ---------------------------------------------------------------------------
  1  0.1370E+06  0 -0.9811E+05  0 -0.9728E+05  0 -0.3704E+05  0   5424.    
   ( 21,  1, 89)  ( 19,  1, 89)  ( 19,  1, 89)  ( 19,  1, 89)  ( 17,  1, 88)
  0   2712.      0   2447.      0   1117.      1   996.0    
   ( 22,  1, 87)  ( 22,  1, 87)  ( 22,  1, 87)  ( 22,  1, 87)


 FLOW MODEL IS TRANSIENT
 FLOW MODEL CONTAINS CONSTANT-HEAD CELLS


 MAXIMUM STEPSIZE DURING WHICH ANY PARTICLE CANNOT MOVE MORE THAN ONE CELL
 =  12.85    (WHEN MIN. R.F.=1)  AT K=  17, I=   1, J=  90

 MAXIMUM STEPSIZE WHICH MEETS STABILITY CRITERION OF THE ADVECTION TERM
 (FOR PURE FINITE-DIFFERENCE OPTION, MIXELM=0) 
 =  8.036    (WHEN MIN. R.F.=1)  AT K=  16, I=   1, J=  90


 TOTAL NUMBER OF POINT SOURCES/SINKS PRESENT IN THE FLOW MODEL =    30

 MAXIMUM STEPSIZE WHICH MEETS STABILITY CRITERION OF THE SINK & SOURCE TERM
 =  12.21    (WHEN MIN. R.F.=1)  AT K=  17, I=   1, J=  91

 MAXIMUM STEPSIZE WHICH MEETS STABILITY CRITERION OF THE DISPERSION TERM
 =  4.022    (WHEN MIN. R.F.=1)  AT K=  17, I=   1, J=  90
     1 CALLS TO GCG PACKAGE FOR TRANSPORT TIME STEP  93 IN FLOW TIME STEP   1 STRESS PERIOD   1
     8 TOTAL ITERATIONS
     1 CALLS TO GCG PACKAGE FOR TRANSPORT TIME STEP  93 IN FLOW TIME STEP   1 STRESS PERIOD   1
     9 TOTAL ITERATIONS
 
 SOLVING FOR HEAD 


     2 CALLS TO PCG ROUTINE FOR TIME STEP   1 IN STRESS PERIOD    1
     9 TOTAL ITERATIONS

 MAXIMUM HEAD CHANGE FOR EACH ITERATION (1 INDICATES THE FIRST INNER ITERATION):

    HEAD CHANGE    HEAD CHANGE    HEAD CHANGE    HEAD CHANGE    HEAD CHANGE 
   LAYER,ROW,COL  LAYER,ROW,COL  LAYER,ROW,COL  LAYER,ROW,COL  LAYER,ROW,COL
 ---------------------------------------------------------------------------
  1 -0.1359E-01  0  0.4038E-02  0  0.3193E-02  0  0.8407E-02  0 -0.8358E-02
   ( 15,  1, 86)  ( 17,  1, 89)  (  8,  1, 12)  (  7,  1, 45)  (  8,  1, 46)
  0  0.1191E-02  0  0.1001E-02  0  0.8595E-03  1 -0.5945E-03
   ( 11,  1, 62)  ( 11,  1, 49)  ( 11,  1, 59)  ( 11,  1, 70)

 MAXIMUM RESIDUAL FOR EACH ITERATION (1 INDICATES THE FIRST INNER ITERATION):

    RESIDUAL       RESIDUAL       RESIDUAL       RESIDUAL       RESIDUAL    
   LAYER,ROW,COL  LAYER,ROW,COL  LAYER,ROW,COL  LAYER,ROW,COL  LAYER,ROW,COL
 ---------------------------------------------------------------------------
  1 -0.1335E+06  0  0.9406E+05  0  0.9313E+05  0  0.3475E+05  0   5985.    
   ( 21,  1, 89)  ( 19,  1, 89)  ( 19,  1, 89)  ( 19,  1, 89)  ( 17,  1, 87)
  0  -2883.      0  -2365.      0  -748.9      1  -624.9    
   ( 22,  1, 87)  ( 22,  1, 87)  ( 22,  1, 87)  ( 22,  1, 87)


 FLOW MODEL IS TRANSIENT
 FLOW MODEL CONTAINS CONSTANT-HEAD CELLS


 MAXIMUM STEPSIZE DURING WHICH ANY PARTICLE CANNOT MOVE MORE THAN ONE CELL
 =  13.22    (WHEN MIN. R.F.=1)  AT K=  17, I=   1, J=  90

 MAXIMUM STEPSIZE WHICH MEETS STABILITY CRITERION OF THE ADVECTION TERM
 (FOR PURE FINITE-DIFFERENCE OPTION, MIXELM=0) 
 =  8.000    (WHEN MIN. R.F.=1)  AT K=  16, I=   1, J=  90


 TOTAL NUMBER OF POINT SOURCES/SINKS PRESENT IN THE FLOW MODEL =    30

 MAXIMUM STEPSIZE WHICH MEETS STABILITY CRITERION OF THE SINK & SOURCE TERM
 =  12.17    (WHEN MIN. R.F.=1)  AT K=  17, I=   1, J=  91

 MAXIMUM STEPSIZE WHICH MEETS STABILITY CRITERION OF THE DISPERSION TERM
 =  4.375    (WHEN MIN. R.F.=1)  AT K=  17, I=   1, J=  90
     1 CALLS TO GCG PACKAGE FOR TRANSPORT TIME STEP  94 IN FLOW TIME STEP   1 STRESS PERIOD   1
     9 TOTAL ITERATIONS
     1 CALLS TO GCG PACKAGE FOR TRANSPORT TIME STEP  94 IN FLOW TIME STEP   1 STRESS PERIOD   1
     9 TOTAL ITERATIONS
 
 SOLVING FOR HEAD 


     2 CALLS TO PCG ROUTINE FOR TIME STEP   1 IN STRESS PERIOD    1
     9 TOTAL ITERATIONS

 MAXIMUM HEAD CHANGE FOR EACH ITERATION (1 INDICATES THE FIRST INNER ITERATION):

    HEAD CHANGE    HEAD CHANGE    HEAD CHANGE    HEAD CHANGE    HEAD CHANGE 
   LAYER,ROW,COL  LAYER,ROW,COL  LAYER,ROW,COL  LAYER,ROW,COL  LAYER,ROW,COL
 ---------------------------------------------------------------------------
  1  0.1338E-01  0 -0.3812E-02  0 -0.2358E-02  0  0.9111E-02  0  0.9521E-02
   ( 15,  1, 86)  ( 17,  1, 89)  (  8,  1, 12)  ( 11,  1, 59)  ( 11,  1, 51)
  0 -0.2378E-02  0 -0.1034E-02  0 -0.7215E-03  1  0.4798E-03
   ( 11,  1, 49)  ( 11,  1, 63)  ( 11,  1, 57)  ( 11,  1, 54)

 MAXIMUM RESIDUAL FOR EACH ITERATION (1 INDICATES THE FIRST INNER ITERATION):

    RESIDUAL       RESIDUAL       RESIDUAL       RESIDUAL       RESIDUAL    
   LAYER,ROW,COL  LAYER,ROW,COL  LAYER,ROW,COL  LAYER,ROW,COL  LAYER,ROW,COL
 ---------------------------------------------------------------------------
  1  0.1344E+06  0 -0.9472E+05  0 -0.9267E+05  0 -0.1945E+05  0  -4837.    
   ( 21,  1, 89)  ( 19,  1, 89)  ( 19,  1, 89)  ( 19,  1, 89)  ( 17,  1, 87)
  0   2849.      0   2240.      0   782.2      1   681.3    
   ( 22,  1, 87)  ( 22,  1, 87)  ( 22,  1, 87)  ( 22,  1, 87)


 FLOW MODEL IS TRANSIENT
 FLOW MODEL CONTAINS CONSTANT-HEAD CELLS


 MAXIMUM STEPSIZE DURING WHICH ANY PARTICLE CANNOT MOVE MORE THAN ONE CELL
 =  12.84    (WHEN MIN. R.F.=1)  AT K=  17, I=   1, J=  90

 MAXIMUM STEPSIZE WHICH MEETS STABILITY CRITERION OF THE ADVECTION TERM
 (FOR PURE FINITE-DIFFERENCE OPTION, MIXELM=0) 
 =  8.028    (WHEN MIN. R.F.=1)  AT K=  16, I=   1, J=  90


 TOTAL NUMBER OF POINT SOURCES/SINKS PRESENT IN THE FLOW MODEL =    30

 MAXIMUM STEPSIZE WHICH MEETS STABILITY CRITERION OF THE SINK & SOURCE TERM
 =  12.19    (WHEN MIN. R.F.=1)  AT K=  17, I=   1, J=  91

 MAXIMUM STEPSIZE WHICH MEETS STABILITY CRITERION OF THE DISPERSION TERM
 =  4.023    (WHEN MIN. R.F.=1)  AT K=  17, I=   1, J=  90
     1 CALLS TO GCG PACKAGE FOR TRANSPORT TIME STEP  95 IN FLOW TIME STEP   1 STRESS PERIOD   1
     8 TOTAL ITERATIONS
  MAXIMUM CONCENTRATION CHANGES FOR EACH ITERATION:
  MAX. CHANGE LAYER,ROW,COL MAX. CHANGE LAYER,ROW,COL MAX. CHANGE LAYER,ROW,COL MAX. CHANGE LAYER,ROW,COL MAX. CHANGE LAYER,ROW,COL
 ------------------------------------------------------------------------------------------------------------------------------------
   0.5280E-01 ( 20,  1, 87)  0.4249E-02 ( 19,  1, 89)  0.2161E-02 ( 17,  1, 86)  0.4738E-03 ( 20,  1, 89)  0.9670E-04 ( 16,  1, 89)
   0.2035E-04 ( 20,  1, 89)  0.1905E-04 ( 16,  1, 90)  0.7544E-06 ( 17,  1, 90)
     1 CALLS TO GCG PACKAGE FOR TRANSPORT TIME STEP  95 IN FLOW TIME STEP   1 STRESS PERIOD   1
     9 TOTAL ITERATIONS
  MAXIMUM CONCENTRATION CHANGES FOR EACH ITERATION:
  MAX. CHANGE LAYER,ROW,COL MAX. CHANGE LAYER,ROW,COL MAX. CHANGE LAYER,ROW,COL MAX. CHANGE LAYER,ROW,COL MAX. CHANGE LAYER,ROW,COL
 ------------------------------------------------------------------------------------------------------------------------------------
   0.6481E-01 ( 20,  1, 87)  0.9890E-02 ( 20,  1, 87)  0.1337E-02 ( 23,  1, 87)  0.5183E-03 ( 23,  1, 86)  0.7573E-04 ( 23,  1, 86)
   0.7746E-04 ( 23,  1, 86)  0.2019E-05 ( 16,  1, 88)  0.7540E-05 ( 16,  1, 88)  0.5734E-06 ( 17,  1, 87)
 
 SOLVING FOR HEAD 


     2 CALLS TO PCG ROUTINE FOR TIME STEP   1 IN STRESS PERIOD    1
    10 TOTAL ITERATIONS

 MAXIMUM HEAD CHANGE FOR EACH ITERATION (1 INDICATES THE FIRST INNER ITERATION):

    HEAD CHANGE    HEAD CHANGE    HEAD CHANGE    HEAD CHANGE    HEAD CHANGE 
   LAYER,ROW,COL  LAYER,ROW,COL  LAYER,ROW,COL  LAYER,ROW,COL  LAYER,ROW,COL
 ---------------------------------------------------------------------------
  1 -0.1348E-01  0  0.3722E-02  0  0.2598E-02  0  0.9017E-02  0 -0.8425E-02
   ( 15,  1, 86)  ( 17,  1, 89)  (  8,  1, 12)  ( 11,  1, 67)  ( 11,  1, 67)
  0 -0.1519E-02  0  0.1005E-02  0  0.1026E-02  0 -0.7195E-03  1 -0.1742E-03
   ( 11,  1, 49)  ( 11,  1, 68)  ( 11,  1, 58)  ( 11,  1, 58)  ( 11,  1, 63)

 MAXIMUM RESIDUAL FOR EACH ITERATION (1 INDICATES THE FIRST INNER ITERATION):

    RESIDUAL       RESIDUAL       RESIDUAL       RESIDUAL       RESIDUAL    
   LAYER,ROW,COL  LAYER,ROW,COL  LAYER,ROW,COL  LAYER,ROW,COL  LAYER,ROW,COL
 ---------------------------------------------------------------------------
  1 -0.1335E+06  0  0.9364E+05  0  0.9247E+05  0  0.3667E+05  0   6149.    
   ( 21,  1, 89)  ( 19,  1, 89)  ( 19,  1, 89)  ( 19,  1, 89)  ( 17,  1, 87)
  0  -2848.      0  -2467.      0  -882.8      0  -355.0      1  -316.8    
   ( 22,  1, 87)  ( 22,  1, 87)  ( 22,  1, 87)  ( 22,  1, 87)  ( 22,  1, 87)


 FLOW MODEL IS TRANSIENT
 FLOW MODEL CONTAINS CONSTANT-HEAD CELLS


 MAXIMUM STEPSIZE DURING WHICH ANY PARTICLE CANNOT MOVE MORE THAN ONE CELL
 =  13.20    (WHEN MIN. R.F.=1)  AT K=  17, I=   1, J=  90

 MAXIMUM STEPSIZE WHICH MEETS STABILITY CRITERION OF THE ADVECTION TERM
 (FOR PURE FINITE-DIFFERENCE OPTION, MIXELM=0) 
 =  7.997    (WHEN MIN. R.F.=1)  AT K=  16, I=   1, J=  90


 TOTAL NUMBER OF POINT SOURCES/SINKS PRESENT IN THE FLOW MODEL =    30

 MAXIMUM STEPSIZE WHICH MEETS STABILITY CRITERION OF THE SINK & SOURCE TERM
 =  12.16    (WHEN MIN. R.F.=1)  AT K=  17, I=   1, J=  91

 MAXIMUM STEPSIZE WHICH MEETS STABILITY CRITERION OF THE DISPERSION TERM
 =  4.361    (WHEN MIN. R.F.=1)  AT K=  17, I=   1, J=  90
     1 CALLS TO GCG PACKAGE FOR TRANSPORT TIME STEP  96 IN FLOW TIME STEP   1 STRESS PERIOD   1
     7 TOTAL ITERATIONS
     1 CALLS TO GCG PACKAGE FOR TRANSPORT TIME STEP  96 IN FLOW TIME STEP   1 STRESS PERIOD   1
     9 TOTAL ITERATIONS
 
 SOLVING FOR HEAD 


     2 CALLS TO PCG ROUTINE FOR TIME STEP   1 IN STRESS PERIOD    1
     8 TOTAL ITERATIONS

 MAXIMUM HEAD CHANGE FOR EACH ITERATION (1 INDICATES THE FIRST INNER ITERATION):

    HEAD CHANGE    HEAD CHANGE    HEAD CHANGE    HEAD CHANGE    HEAD CHANGE 
   LAYER,ROW,COL  LAYER,ROW,COL  LAYER,ROW,COL  LAYER,ROW,COL  LAYER,ROW,COL
 ---------------------------------------------------------------------------
  1  0.1346E-01  0 -0.3606E-02  0 -0.2551E-02  0 -0.4250E-02  0  0.6322E-02
   ( 15,  1, 86)  ( 17,  1, 89)  (  8,  1, 12)  ( 11,  1, 49)  ( 11,  1, 49)
  0 -0.1988E-02  0 -0.8335E-03  1  0.6603E-03
   ( 11,  1, 51)  ( 11,  1, 70)  ( 11,  1, 49)

 MAXIMUM RESIDUAL FOR EACH ITERATION (1 INDICATES THE FIRST INNER ITERATION):

    RESIDUAL       RESIDUAL       RESIDUAL       RESIDUAL       RESIDUAL    
   LAYER,ROW,COL  LAYER,ROW,COL  LAYER,ROW,COL  LAYER,ROW,COL  LAYER,ROW,COL
 ---------------------------------------------------------------------------
  1  0.1314E+06  0 -0.9143E+05  0 -0.8828E+05  0 -0.1328E+05  0   3943.    
   ( 21,  1, 89)  ( 19,  1, 89)  ( 19,  1, 89)  ( 17,  1, 87)  ( 18,  1, 89)
  0   2915.      0   2060.      1   1797.    
   ( 22,  1, 87)  ( 22,  1, 87)  ( 22,  1, 87)


 FLOW MODEL IS TRANSIENT
 FLOW MODEL CONTAINS CONSTANT-HEAD CELLS


 MAXIMUM STEPSIZE DURING WHICH ANY PARTICLE CANNOT MOVE MORE THAN ONE CELL
 =  12.83    (WHEN MIN. R.F.=1)  AT K=  17, I=   1, J=  90

 MAXIMUM STEPSIZE WHICH MEETS STABILITY CRITERION OF THE ADVECTION TERM
 (FOR PURE FINITE-DIFFERENCE OPTION, MIXELM=0) 
 =  8.020    (WHEN MIN. R.F.=1)  AT K=  16, I=   1, J=  90


 TOTAL NUMBER OF POINT SOURCES/SINKS PRESENT IN THE FLOW MODEL =    30

 MAXIMUM STEPSIZE WHICH MEETS STABILITY CRITERION OF THE SINK & SOURCE TERM
 =  12.18    (WHEN MIN. R.F.=1)  AT K=  17, I=   1, J=  91

 MAXIMUM STEPSIZE WHICH MEETS STABILITY CRITERION OF THE DISPERSION TERM
 =  4.023    (WHEN MIN. R.F.=1)  AT K=  17, I=   1, J=  90
     1 CALLS TO GCG PACKAGE FOR TRANSPORT TIME STEP  97 IN FLOW TIME STEP   1 STRESS PERIOD   1
     8 TOTAL ITERATIONS
     1 CALLS TO GCG PACKAGE FOR TRANSPORT TIME STEP  97 IN FLOW TIME STEP   1 STRESS PERIOD   1
     7 TOTAL ITERATIONS
 
 SOLVING FOR HEAD 


     2 CALLS TO PCG ROUTINE FOR TIME STEP   1 IN STRESS PERIOD    1
     9 TOTAL ITERATIONS

 MAXIMUM HEAD CHANGE FOR EACH ITERATION (1 INDICATES THE FIRST INNER ITERATION):

    HEAD CHANGE    HEAD CHANGE    HEAD CHANGE    HEAD CHANGE    HEAD CHANGE 
   LAYER,ROW,COL  LAYER,ROW,COL  LAYER,ROW,COL  LAYER,ROW,COL  LAYER,ROW,COL
 ---------------------------------------------------------------------------
  1 -0.1367E-01  0  0.3900E-02  0  0.2915E-02  0  0.9940E-02  0 -0.9292E-02
   ( 15,  1, 86)  ( 17,  1, 89)  (  8,  1, 12)  (  8,  1, 50)  (  9,  1, 50)
  0 -0.3081E-02  0  0.1453E-02  0  0.9974E-03  1 -0.6771E-03
   ( 11,  1, 53)  ( 11,  1, 53)  ( 11,  1, 70)  ( 11,  1, 70)

 MAXIMUM RESIDUAL FOR EACH ITERATION (1 INDICATES THE FIRST INNER ITERATION):

    RESIDUAL       RESIDUAL       RESIDUAL       RESIDUAL       RESIDUAL    
   LAYER,ROW,COL  LAYER,ROW,COL  LAYER,ROW,COL  LAYER,ROW,COL  LAYER,ROW,COL
 ---------------------------------------------------------------------------
  1 -0.1346E+06  0  0.9535E+05  0  0.9430E+05  0  0.4736E+05  0   5983.    
   ( 21,  1, 89)  ( 19,  1, 89)  ( 19,  1, 89)  ( 19,  1, 89)  ( 17,  1, 87)
  0  -2762.      0  -2558.      0  -1097.      1  -974.0    
   ( 22,  1, 87)  ( 22,  1, 87)  ( 22,  1, 87)  ( 22,  1, 87)


 FLOW MODEL IS TRANSIENT
 FLOW MODEL CONTAINS CONSTANT-HEAD CELLS


 MAXIMUM STEPSIZE DURING WHICH ANY PARTICLE CANNOT MOVE MORE THAN ONE CELL
 =  13.14    (WHEN MIN. R.F.=1)  AT K=  17, I=   1, J=  90

 MAXIMUM STEPSIZE WHICH MEETS STABILITY CRITERION OF THE ADVECTION TERM
 (FOR PURE FINITE-DIFFERENCE OPTION, MIXELM=0) 
 =  7.972    (WHEN MIN. R.F.=1)  AT K=  16, I=   1, J=  90


 TOTAL NUMBER OF POINT SOURCES/SINKS PRESENT IN THE FLOW MODEL =    30

 MAXIMUM STEPSIZE WHICH MEETS STABILITY CRITERION OF THE SINK & SOURCE TERM
 =  12.08    (WHEN MIN. R.F.=1)  AT K=  17, I=   1, J=  91

 MAXIMUM STEPSIZE WHICH MEETS STABILITY CRITERION OF THE DISPERSION TERM
 =  4.332    (WHEN MIN. R.F.=1)  AT K=  17, I=   1, J=  90
     1 CALLS TO GCG PACKAGE FOR TRANSPORT TIME STEP  98 IN FLOW TIME STEP   1 STRESS PERIOD   1
    10 TOTAL ITERATIONS
     1 CALLS TO GCG PACKAGE FOR TRANSPORT TIME STEP  98 IN FLOW TIME STEP   1 STRESS PERIOD   1
     9 TOTAL ITERATIONS
 
 SOLVING FOR HEAD 


     2 CALLS TO PCG ROUTINE FOR TIME STEP   1 IN STRESS PERIOD    1
     9 TOTAL ITERATIONS

 MAXIMUM HEAD CHANGE FOR EACH ITERATION (1 INDICATES THE FIRST INNER ITERATION):

    HEAD CHANGE    HEAD CHANGE    HEAD CHANGE    HEAD CHANGE    HEAD CHANGE 
   LAYER,ROW,COL  LAYER,ROW,COL  LAYER,ROW,COL  LAYER,ROW,COL  LAYER,ROW,COL
 ---------------------------------------------------------------------------
  1  0.1377E-01  0 -0.3973E-02  0 -0.3506E-02  0 -0.9659E-02  0  0.1094E-01
   ( 15,  1, 86)  ( 17,  1, 89)  (  8,  1, 12)  ( 11,  1, 56)  ( 11,  1, 56)
  0 -0.1893E-02  0 -0.1051E-02  0 -0.8170E-03  1  0.5331E-03
   ( 11,  1, 54)  ( 11,  1, 70)  ( 11,  1, 50)  ( 11,  1, 70)

 MAXIMUM RESIDUAL FOR EACH ITERATION (1 INDICATES THE FIRST INNER ITERATION):

    RESIDUAL       RESIDUAL       RESIDUAL       RESIDUAL       RESIDUAL    
   LAYER,ROW,COL  LAYER,ROW,COL  LAYER,ROW,COL  LAYER,ROW,COL  LAYER,ROW,COL
 ---------------------------------------------------------------------------
  1  0.1325E+06  0 -0.9371E+05  0 -0.9286E+05  0 -0.2146E+05  0  -5000.    
   ( 21,  1, 89)  ( 19,  1, 89)  ( 19,  1, 89)  ( 19,  1, 89)  ( 17,  1, 87)
  0   2828.      0   1999.      0   709.1      1   605.6    
   ( 22,  1, 87)  ( 22,  1, 87)  ( 22,  1, 87)  ( 22,  1, 87)


 FLOW MODEL IS TRANSIENT
 FLOW MODEL CONTAINS CONSTANT-HEAD CELLS


 MAXIMUM STEPSIZE DURING WHICH ANY PARTICLE CANNOT MOVE MORE THAN ONE CELL
 =  12.84    (WHEN MIN. R.F.=1)  AT K=  17, I=   1, J=  90

 MAXIMUM STEPSIZE WHICH MEETS STABILITY CRITERION OF THE ADVECTION TERM
 (FOR PURE FINITE-DIFFERENCE OPTION, MIXELM=0) 
 =  8.027    (WHEN MIN. R.F.=1)  AT K=  16, I=   1, J=  90


 TOTAL NUMBER OF POINT SOURCES/SINKS PRESENT IN THE FLOW MODEL =    30

 MAXIMUM STEPSIZE WHICH MEETS STABILITY CRITERION OF THE SINK & SOURCE TERM
 =  12.18    (WHEN MIN. R.F.=1)  AT K=  17, I=   1, J=  91

 MAXIMUM STEPSIZE WHICH MEETS STABILITY CRITERION OF THE DISPERSION TERM
 =  4.025    (WHEN MIN. R.F.=1)  AT K=  17, I=   1, J=  90
     1 CALLS TO GCG PACKAGE FOR TRANSPORT TIME STEP  99 IN FLOW TIME STEP   1 STRESS PERIOD   1
     8 TOTAL ITERATIONS
     1 CALLS TO GCG PACKAGE FOR TRANSPORT TIME STEP  99 IN FLOW TIME STEP   1 STRESS PERIOD   1
     9 TOTAL ITERATIONS
 
 SOLVING FOR HEAD 


     2 CALLS TO PCG ROUTINE FOR TIME STEP   1 IN STRESS PERIOD    1
     8 TOTAL ITERATIONS

 MAXIMUM HEAD CHANGE FOR EACH ITERATION (1 INDICATES THE FIRST INNER ITERATION):

    HEAD CHANGE    HEAD CHANGE    HEAD CHANGE    HEAD CHANGE    HEAD CHANGE 
   LAYER,ROW,COL  LAYER,ROW,COL  LAYER,ROW,COL  LAYER,ROW,COL  LAYER,ROW,COL
 ---------------------------------------------------------------------------
  1 -0.1339E-01  0  0.3642E-02  0  0.2443E-02  0 -0.1045E-01  0  0.1015E-01
   ( 15,  1, 86)  ( 17,  1, 89)  (  8,  1, 12)  ( 11,  1, 49)  ( 11,  1, 49)
  0 -0.1463E-02  0  0.9573E-03  1  0.6302E-03
   ( 11,  1, 36)  ( 11,  1, 58)  ( 11,  1, 49)

 MAXIMUM RESIDUAL FOR EACH ITERATION (1 INDICATES THE FIRST INNER ITERATION):

    RESIDUAL       RESIDUAL       RESIDUAL       RESIDUAL       RESIDUAL    
   LAYER,ROW,COL  LAYER,ROW,COL  LAYER,ROW,COL  LAYER,ROW,COL  LAYER,ROW,COL
 ---------------------------------------------------------------------------
  1 -0.1303E+06  0  0.9134E+05  0  0.8867E+05  0  0.3147E+05  0   5978.    
   ( 21,  1, 89)  ( 19,  1, 89)  ( 19,  1, 89)  ( 19,  1, 89)  ( 17,  1, 87)
  0  -2865.      0  -2599.      1  -1958.    
   ( 22,  1, 87)  ( 22,  1, 87)  ( 22,  1, 87)


 FLOW MODEL IS TRANSIENT
 FLOW MODEL CONTAINS CONSTANT-HEAD CELLS


 MAXIMUM STEPSIZE DURING WHICH ANY PARTICLE CANNOT MOVE MORE THAN ONE CELL
 =  13.22    (WHEN MIN. R.F.=1)  AT K=  17, I=   1, J=  90

 MAXIMUM STEPSIZE WHICH MEETS STABILITY CRITERION OF THE ADVECTION TERM
 (FOR PURE FINITE-DIFFERENCE OPTION, MIXELM=0) 
 =  8.004    (WHEN MIN. R.F.=1)  AT K=  16, I=   1, J=  90


 TOTAL NUMBER OF POINT SOURCES/SINKS PRESENT IN THE FLOW MODEL =    30

 MAXIMUM STEPSIZE WHICH MEETS STABILITY CRITERION OF THE SINK & SOURCE TERM
 =  12.17    (WHEN MIN. R.F.=1)  AT K=  17, I=   1, J=  91

 MAXIMUM STEPSIZE WHICH MEETS STABILITY CRITERION OF THE DISPERSION TERM
 =  4.366    (WHEN MIN. R.F.=1)  AT K=  17, I=   1, J=  90
     1 CALLS TO GCG PACKAGE FOR TRANSPORT TIME STEP 100 IN FLOW TIME STEP   1 STRESS PERIOD   1
     8 TOTAL ITERATIONS
  MAXIMUM CONCENTRATION CHANGES FOR EACH ITERATION:
  MAX. CHANGE LAYER,ROW,COL MAX. CHANGE LAYER,ROW,COL MAX. CHANGE LAYER,ROW,COL MAX. CHANGE LAYER,ROW,COL MAX. CHANGE LAYER,ROW,COL
 ------------------------------------------------------------------------------------------------------------------------------------
   0.4895E-01 ( 20,  1, 87)  0.3327E-02 ( 19,  1, 87)  0.2181E-02 ( 18,  1, 87)  0.2172E-03 ( 16,  1, 88)  0.1454E-03 ( 16,  1, 89)
   0.2783E-04 ( 16,  1, 90)  0.3204E-05 ( 21,  1, 78)  0.6048E-06 ( 16,  1, 89)
     1 CALLS TO GCG PACKAGE FOR TRANSPORT TIME STEP 100 IN FLOW TIME STEP   1 STRESS PERIOD   1
     9 TOTAL ITERATIONS
  MAXIMUM CONCENTRATION CHANGES FOR EACH ITERATION:
  MAX. CHANGE LAYER,ROW,COL MAX. CHANGE LAYER,ROW,COL MAX. CHANGE LAYER,ROW,COL MAX. CHANGE LAYER,ROW,COL MAX. CHANGE LAYER,ROW,COL
 ------------------------------------------------------------------------------------------------------------------------------------
   0.6085E-01 ( 19,  1, 88)  0.1007E-01 ( 20,  1, 87)  0.1153E-02 ( 23,  1, 88)  0.7835E-03 ( 23,  1, 85)  0.4861E-03 ( 23,  1, 85)
   0.7730E-04 ( 23,  1, 85)  0.4574E-05 ( 17,  1, 90)  0.1327E-05 ( 17,  1, 90)  0.1242E-06 ( 17,  1, 90)



 >>>>>>>>>>>>>>>>>>>>>>>>>>>>>>>>>>>>>>>>>>>>>>>>>>>>>>>FOR COMPONENT NO. 01<<<<<<<<<<<<<<<<<<<<<<<<<<<<<<<<<<<<<<<<<<<<<<<<<<<<<<<


                                            -------------------------------------------
                                                      TRANSPORT STEP NO.  100
                                            -------------------------------------------

 TOTAL ELAPSED TIME SINCE BEGINNING OF SIMULATION =   5000.000    D   
 .....................................................................

                     CUMMULATIVE MASS BUDGETS AT END OF TRANSPORT STEP  100, TIME STEP    1, STRESS PERIOD    1
                     ------------------------------------------------------------------------------------------

                                                             IN                           OUT
                                                      ----------------             ----------------
                               CONSTANT CONCENTRATION:    0.000000                    0.000000    
                                        CONSTANT HEAD:   0.1980457E+09              -0.1979051E+09
                                                WELLS:    0.000000                    0.000000    
                                             RECHARGE:    0.000000                    0.000000    
                               1ST/0TH ORDER REACTION:    0.000000                    0.000000    
                                MASS STORAGE (SOLUTE):   0.2777014E+08              -0.2791079E+08
                            ---------------------------------------------------------------------------
                                              [TOTAL]:   0.2258161E+09 KG           -0.2258161E+09 KG  

                                                          NET (IN - OUT):   -49.55135    
                                                   DISCREPANCY (PERCENT):  -0.2194323E-04



 >>>>>>>>>>>>>>>>>>>>>>>>>>>>>>>>>>>>>>>>>>>>>>>>>>>>>>>FOR COMPONENT NO. 02<<<<<<<<<<<<<<<<<<<<<<<<<<<<<<<<<<<<<<<<<<<<<<<<<<<<<<<


                                            -------------------------------------------
                                                      TRANSPORT STEP NO.  100
                                            -------------------------------------------

 TOTAL ELAPSED TIME SINCE BEGINNING OF SIMULATION =   5000.000    D   
 .....................................................................

                     CUMMULATIVE MASS BUDGETS AT END OF TRANSPORT STEP  100, TIME STEP    1, STRESS PERIOD    1
                     ------------------------------------------------------------------------------------------

                                                             IN                           OUT
                                                      ----------------             ----------------
                               CONSTANT CONCENTRATION:    0.000000                    0.000000    
                                        CONSTANT HEAD:    0.000000                  -0.9264927E+10
                                                WELLS:    0.000000                    0.000000    
                                             RECHARGE:    0.000000                    0.000000    
                               1ST/0TH ORDER REACTION:   0.8275000E+11                0.000000    
                                MASS STORAGE (SOLUTE):   0.1289107E+10              -0.7477418E+11
                            ---------------------------------------------------------------------------
                                              [TOTAL]:   0.8403914E+11 KG           -0.8403914E+11 KG  

                                                          NET (IN - OUT):    51.17513    
                                                   DISCREPANCY (PERCENT):   0.6089439E-07
 
 SOLVING FOR HEAD 


     2 CALLS TO PCG ROUTINE FOR TIME STEP   1 IN STRESS PERIOD    1
     9 TOTAL ITERATIONS

 MAXIMUM HEAD CHANGE FOR EACH ITERATION (1 INDICATES THE FIRST INNER ITERATION):

    HEAD CHANGE    HEAD CHANGE    HEAD CHANGE    HEAD CHANGE    HEAD CHANGE 
   LAYER,ROW,COL  LAYER,ROW,COL  LAYER,ROW,COL  LAYER,ROW,COL  LAYER,ROW,COL
 ---------------------------------------------------------------------------
  1  0.1373E-01  0  0.7197E-02  0 -0.3662E-02  0 -0.8259E-02  0  0.6706E-02
   ( 15,  1, 86)  (  7,  1, 39)  (  7,  1, 12)  (  7,  1, 40)  (  8,  1, 42)
  0  0.4223E-02  0 -0.1297E-02  0 -0.6764E-03  1  0.6041E-03
   ( 11,  1, 49)  ( 11,  1, 49)  ( 11,  1, 70)  ( 11,  1, 70)

 MAXIMUM RESIDUAL FOR EACH ITERATION (1 INDICATES THE FIRST INNER ITERATION):

    RESIDUAL       RESIDUAL       RESIDUAL       RESIDUAL       RESIDUAL    
   LAYER,ROW,COL  LAYER,ROW,COL  LAYER,ROW,COL  LAYER,ROW,COL  LAYER,ROW,COL
 ---------------------------------------------------------------------------
  1  0.1341E+06  0 -0.9435E+05  0 -0.9349E+05  0 -0.7465E+05  0  -6372.    
   ( 21,  1, 89)  ( 19,  1, 89)  ( 19,  1, 89)  ( 19,  1, 89)  ( 17,  1, 87)
  0   3152.      0   2624.      0   995.0      1   887.3    
   ( 17,  1, 88)  ( 22,  1, 87)  ( 22,  1, 87)  ( 22,  1, 87)


 FLOW MODEL IS TRANSIENT
 FLOW MODEL CONTAINS CONSTANT-HEAD CELLS


 MAXIMUM STEPSIZE DURING WHICH ANY PARTICLE CANNOT MOVE MORE THAN ONE CELL
 =  12.91    (WHEN MIN. R.F.=1)  AT K=  17, I=   1, J=  90

 MAXIMUM STEPSIZE WHICH MEETS STABILITY CRITERION OF THE ADVECTION TERM
 (FOR PURE FINITE-DIFFERENCE OPTION, MIXELM=0) 
 =  8.056    (WHEN MIN. R.F.=1)  AT K=  16, I=   1, J=  90


 TOTAL NUMBER OF POINT SOURCES/SINKS PRESENT IN THE FLOW MODEL =    30

 MAXIMUM STEPSIZE WHICH MEETS STABILITY CRITERION OF THE SINK & SOURCE TERM
 =  12.28    (WHEN MIN. R.F.=1)  AT K=  17, I=   1, J=  91

 MAXIMUM STEPSIZE WHICH MEETS STABILITY CRITERION OF THE DISPERSION TERM
 =  4.053    (WHEN MIN. R.F.=1)  AT K=  17, I=   1, J=  90
     1 CALLS TO GCG PACKAGE FOR TRANSPORT TIME STEP 101 IN FLOW TIME STEP   1 STRESS PERIOD   1
     8 TOTAL ITERATIONS
     1 CALLS TO GCG PACKAGE FOR TRANSPORT TIME STEP 101 IN FLOW TIME STEP   1 STRESS PERIOD   1
     9 TOTAL ITERATIONS
 
 SOLVING FOR HEAD 


     2 CALLS TO PCG ROUTINE FOR TIME STEP   1 IN STRESS PERIOD    1
     8 TOTAL ITERATIONS

 MAXIMUM HEAD CHANGE FOR EACH ITERATION (1 INDICATES THE FIRST INNER ITERATION):

    HEAD CHANGE    HEAD CHANGE    HEAD CHANGE    HEAD CHANGE    HEAD CHANGE 
   LAYER,ROW,COL  LAYER,ROW,COL  LAYER,ROW,COL  LAYER,ROW,COL  LAYER,ROW,COL
 ---------------------------------------------------------------------------
  1 -0.1362E-01  0  0.3994E-02  0  0.2661E-02  0  0.1160E-01  0 -0.1236E-01
   ( 15,  1, 86)  ( 17,  1, 89)  (  8,  1, 12)  ( 11,  1, 54)  ( 11,  1, 54)
  0  0.1440E-02  0  0.8793E-03  1  0.4981E-03
   ( 11,  1, 52)  ( 11,  1, 64)  ( 11,  1, 49)

 MAXIMUM RESIDUAL FOR EACH ITERATION (1 INDICATES THE FIRST INNER ITERATION):

    RESIDUAL       RESIDUAL       RESIDUAL       RESIDUAL       RESIDUAL    
   LAYER,ROW,COL  LAYER,ROW,COL  LAYER,ROW,COL  LAYER,ROW,COL  LAYER,ROW,COL
 ---------------------------------------------------------------------------
  1 -0.1357E+06  0  0.9666E+05  0  0.9545E+05  0  0.2475E+05  0   5216.    
   ( 21,  1, 89)  ( 19,  1, 89)  ( 19,  1, 89)  ( 19,  1, 89)  ( 17,  1, 87)
  0  -2833.      0  -2222.      1  -1978.    
   ( 22,  1, 87)  ( 22,  1, 87)  ( 22,  1, 87)


 FLOW MODEL IS TRANSIENT
 FLOW MODEL CONTAINS CONSTANT-HEAD CELLS


 MAXIMUM STEPSIZE DURING WHICH ANY PARTICLE CANNOT MOVE MORE THAN ONE CELL
 =  13.23    (WHEN MIN. R.F.=1)  AT K=  17, I=   1, J=  90

 MAXIMUM STEPSIZE WHICH MEETS STABILITY CRITERION OF THE ADVECTION TERM
 (FOR PURE FINITE-DIFFERENCE OPTION, MIXELM=0) 
 =  8.006    (WHEN MIN. R.F.=1)  AT K=  16, I=   1, J=  90


 TOTAL NUMBER OF POINT SOURCES/SINKS PRESENT IN THE FLOW MODEL =    30

 MAXIMUM STEPSIZE WHICH MEETS STABILITY CRITERION OF THE SINK & SOURCE TERM
 =  12.19    (WHEN MIN. R.F.=1)  AT K=  17, I=   1, J=  91

 MAXIMUM STEPSIZE WHICH MEETS STABILITY CRITERION OF THE DISPERSION TERM
 =  4.371    (WHEN MIN. R.F.=1)  AT K=  17, I=   1, J=  90
     1 CALLS TO GCG PACKAGE FOR TRANSPORT TIME STEP 102 IN FLOW TIME STEP   1 STRESS PERIOD   1
    10 TOTAL ITERATIONS
     1 CALLS TO GCG PACKAGE FOR TRANSPORT TIME STEP 102 IN FLOW TIME STEP   1 STRESS PERIOD   1
     9 TOTAL ITERATIONS
 
 SOLVING FOR HEAD 


     2 CALLS TO PCG ROUTINE FOR TIME STEP   1 IN STRESS PERIOD    1
     8 TOTAL ITERATIONS

 MAXIMUM HEAD CHANGE FOR EACH ITERATION (1 INDICATES THE FIRST INNER ITERATION):

    HEAD CHANGE    HEAD CHANGE    HEAD CHANGE    HEAD CHANGE    HEAD CHANGE 
   LAYER,ROW,COL  LAYER,ROW,COL  LAYER,ROW,COL  LAYER,ROW,COL  LAYER,ROW,COL
 ---------------------------------------------------------------------------
  1  0.1370E-01  0 -0.4021E-02  0 -0.4161E-02  0  0.1041E-01  0 -0.9187E-02
   ( 15,  1, 86)  ( 17,  1, 89)  (  8,  1, 12)  (  7,  1, 50)  (  7,  1, 50)
  0 -0.1659E-02  0  0.9651E-03  1 -0.8261E-03
   ( 11,  1, 55)  ( 11,  1, 55)  ( 11,  1, 56)

 MAXIMUM RESIDUAL FOR EACH ITERATION (1 INDICATES THE FIRST INNER ITERATION):

    RESIDUAL       RESIDUAL       RESIDUAL       RESIDUAL       RESIDUAL    
   LAYER,ROW,COL  LAYER,ROW,COL  LAYER,ROW,COL  LAYER,ROW,COL  LAYER,ROW,COL
 ---------------------------------------------------------------------------
  1  0.1361E+06  0 -0.9683E+05  0 -0.9606E+05  0 -0.5416E+05  0  -5794.    
   ( 21,  1, 89)  ( 19,  1, 89)  ( 19,  1, 89)  ( 19,  1, 89)  ( 17,  1, 87)
  0   2835.      0   2528.      1   1999.    
   ( 22,  1, 87)  ( 22,  1, 87)  ( 22,  1, 87)


 FLOW MODEL IS TRANSIENT
 FLOW MODEL CONTAINS CONSTANT-HEAD CELLS


 MAXIMUM STEPSIZE DURING WHICH ANY PARTICLE CANNOT MOVE MORE THAN ONE CELL
 =  12.87    (WHEN MIN. R.F.=1)  AT K=  17, I=   1, J=  90

 MAXIMUM STEPSIZE WHICH MEETS STABILITY CRITERION OF THE ADVECTION TERM
 (FOR PURE FINITE-DIFFERENCE OPTION, MIXELM=0) 
 =  8.045    (WHEN MIN. R.F.=1)  AT K=  16, I=   1, J=  90


 TOTAL NUMBER OF POINT SOURCES/SINKS PRESENT IN THE FLOW MODEL =    30

 MAXIMUM STEPSIZE WHICH MEETS STABILITY CRITERION OF THE SINK & SOURCE TERM
 =  12.25    (WHEN MIN. R.F.=1)  AT K=  17, I=   1, J=  91

 MAXIMUM STEPSIZE WHICH MEETS STABILITY CRITERION OF THE DISPERSION TERM
 =  4.034    (WHEN MIN. R.F.=1)  AT K=  17, I=   1, J=  90
     1 CALLS TO GCG PACKAGE FOR TRANSPORT TIME STEP 103 IN FLOW TIME STEP   1 STRESS PERIOD   1
     8 TOTAL ITERATIONS
     1 CALLS TO GCG PACKAGE FOR TRANSPORT TIME STEP 103 IN FLOW TIME STEP   1 STRESS PERIOD   1
     9 TOTAL ITERATIONS
 
 SOLVING FOR HEAD 


     2 CALLS TO PCG ROUTINE FOR TIME STEP   1 IN STRESS PERIOD    1
     9 TOTAL ITERATIONS

 MAXIMUM HEAD CHANGE FOR EACH ITERATION (1 INDICATES THE FIRST INNER ITERATION):

    HEAD CHANGE    HEAD CHANGE    HEAD CHANGE    HEAD CHANGE    HEAD CHANGE 
   LAYER,ROW,COL  LAYER,ROW,COL  LAYER,ROW,COL  LAYER,ROW,COL  LAYER,ROW,COL
 ---------------------------------------------------------------------------
  1 -0.1391E-01  0 -0.8910E-02  0  0.6560E-02  0  0.1634E-01  0 -0.1324E-01
   ( 15,  1, 86)  ( 11,  1, 56)  (  8,  1, 12)  ( 11,  1, 56)  ( 11,  1, 56)
  0  0.3189E-02  0 -0.1486E-02  0  0.6078E-03  1  0.4820E-03
   ( 11,  1, 49)  ( 11,  1, 49)  ( 11,  1, 39)  ( 11,  1, 59)

 MAXIMUM RESIDUAL FOR EACH ITERATION (1 INDICATES THE FIRST INNER ITERATION):

    RESIDUAL       RESIDUAL       RESIDUAL       RESIDUAL       RESIDUAL    
   LAYER,ROW,COL  LAYER,ROW,COL  LAYER,ROW,COL  LAYER,ROW,COL  LAYER,ROW,COL
 ---------------------------------------------------------------------------
  1 -0.1372E+06  0  0.9680E+05  0  0.9656E+05  0  0.6864E+05  0  -5663.    
   ( 21,  1, 89)  ( 19,  1, 89)  ( 19,  1, 89)  ( 19,  1, 89)  ( 17,  1, 88)
  0  -2781.      0  -2619.      0  -1403.      1  -1256.    
   ( 22,  1, 87)  ( 22,  1, 87)  ( 22,  1, 87)  ( 22,  1, 87)


 FLOW MODEL IS TRANSIENT
 FLOW MODEL CONTAINS CONSTANT-HEAD CELLS


 MAXIMUM STEPSIZE DURING WHICH ANY PARTICLE CANNOT MOVE MORE THAN ONE CELL
 =  13.20    (WHEN MIN. R.F.=1)  AT K=  17, I=   1, J=  90

 MAXIMUM STEPSIZE WHICH MEETS STABILITY CRITERION OF THE ADVECTION TERM
 (FOR PURE FINITE-DIFFERENCE OPTION, MIXELM=0) 
 =  7.989    (WHEN MIN. R.F.=1)  AT K=  16, I=   1, J=  90


 TOTAL NUMBER OF POINT SOURCES/SINKS PRESENT IN THE FLOW MODEL =    30

 MAXIMUM STEPSIZE WHICH MEETS STABILITY CRITERION OF THE SINK & SOURCE TERM
 =  12.14    (WHEN MIN. R.F.=1)  AT K=  17, I=   1, J=  91

 MAXIMUM STEPSIZE WHICH MEETS STABILITY CRITERION OF THE DISPERSION TERM
 =  4.367    (WHEN MIN. R.F.=1)  AT K=  17, I=   1, J=  90
     1 CALLS TO GCG PACKAGE FOR TRANSPORT TIME STEP 104 IN FLOW TIME STEP   1 STRESS PERIOD   1
     7 TOTAL ITERATIONS
     1 CALLS TO GCG PACKAGE FOR TRANSPORT TIME STEP 104 IN FLOW TIME STEP   1 STRESS PERIOD   1
     9 TOTAL ITERATIONS
 
 SOLVING FOR HEAD 


     2 CALLS TO PCG ROUTINE FOR TIME STEP   1 IN STRESS PERIOD    1
     8 TOTAL ITERATIONS

 MAXIMUM HEAD CHANGE FOR EACH ITERATION (1 INDICATES THE FIRST INNER ITERATION):

    HEAD CHANGE    HEAD CHANGE    HEAD CHANGE    HEAD CHANGE    HEAD CHANGE 
   LAYER,ROW,COL  LAYER,ROW,COL  LAYER,ROW,COL  LAYER,ROW,COL  LAYER,ROW,COL
 ---------------------------------------------------------------------------
  1  0.1358E-01  0 -0.4184E-02  0 -0.3268E-02  0 -0.9138E-02  0  0.9124E-02
   ( 15,  1, 86)  ( 17,  1, 89)  (  8,  1, 12)  (  7,  1, 44)  (  6,  1, 44)
  0 -0.1872E-02  0 -0.9821E-03  1  0.6607E-03
   ( 11,  1, 68)  ( 11,  1, 49)  ( 11,  1, 49)

 MAXIMUM RESIDUAL FOR EACH ITERATION (1 INDICATES THE FIRST INNER ITERATION):

    RESIDUAL       RESIDUAL       RESIDUAL       RESIDUAL       RESIDUAL    
   LAYER,ROW,COL  LAYER,ROW,COL  LAYER,ROW,COL  LAYER,ROW,COL  LAYER,ROW,COL
 ---------------------------------------------------------------------------
  1  0.1372E+06  0 -0.9836E+05  0 -0.9738E+05  0 -0.3551E+05  0   6023.    
   ( 21,  1, 89)  ( 19,  1, 89)  ( 19,  1, 89)  ( 19,  1, 89)  ( 17,  1, 88)
  0   2765.      0   2395.      1   2029.    
   ( 22,  1, 87)  ( 22,  1, 87)  ( 22,  1, 87)


 FLOW MODEL IS TRANSIENT
 FLOW MODEL CONTAINS CONSTANT-HEAD CELLS


 MAXIMUM STEPSIZE DURING WHICH ANY PARTICLE CANNOT MOVE MORE THAN ONE CELL
 =  12.83    (WHEN MIN. R.F.=1)  AT K=  17, I=   1, J=  90

 MAXIMUM STEPSIZE WHICH MEETS STABILITY CRITERION OF THE ADVECTION TERM
 (FOR PURE FINITE-DIFFERENCE OPTION, MIXELM=0) 
 =  8.028    (WHEN MIN. R.F.=1)  AT K=  16, I=   1, J=  90


 TOTAL NUMBER OF POINT SOURCES/SINKS PRESENT IN THE FLOW MODEL =    30

 MAXIMUM STEPSIZE WHICH MEETS STABILITY CRITERION OF THE SINK & SOURCE TERM
 =  12.19    (WHEN MIN. R.F.=1)  AT K=  17, I=   1, J=  91

 MAXIMUM STEPSIZE WHICH MEETS STABILITY CRITERION OF THE DISPERSION TERM
 =  4.016    (WHEN MIN. R.F.=1)  AT K=  17, I=   1, J=  90
     1 CALLS TO GCG PACKAGE FOR TRANSPORT TIME STEP 105 IN FLOW TIME STEP   1 STRESS PERIOD   1
     8 TOTAL ITERATIONS
  MAXIMUM CONCENTRATION CHANGES FOR EACH ITERATION:
  MAX. CHANGE LAYER,ROW,COL MAX. CHANGE LAYER,ROW,COL MAX. CHANGE LAYER,ROW,COL MAX. CHANGE LAYER,ROW,COL MAX. CHANGE LAYER,ROW,COL
 ------------------------------------------------------------------------------------------------------------------------------------
   0.5213E-01 ( 20,  1, 87)  0.4312E-02 ( 19,  1, 89)  0.2101E-02 ( 17,  1, 86)  0.4825E-03 ( 20,  1, 89)  0.9523E-04 ( 16,  1, 89)
   0.2210E-04 ( 20,  1, 89)  0.2205E-04 ( 16,  1, 90)  0.6050E-06 ( 17,  1, 90)
     1 CALLS TO GCG PACKAGE FOR TRANSPORT TIME STEP 105 IN FLOW TIME STEP   1 STRESS PERIOD   1
     9 TOTAL ITERATIONS
  MAXIMUM CONCENTRATION CHANGES FOR EACH ITERATION:
  MAX. CHANGE LAYER,ROW,COL MAX. CHANGE LAYER,ROW,COL MAX. CHANGE LAYER,ROW,COL MAX. CHANGE LAYER,ROW,COL MAX. CHANGE LAYER,ROW,COL
 ------------------------------------------------------------------------------------------------------------------------------------
   0.6509E-01 ( 20,  1, 87)  0.9210E-02 ( 20,  1, 87)  0.1169E-02 ( 23,  1, 87)  0.8553E-03 ( 23,  1, 86)  0.2614E-03 ( 23,  1, 86)
   0.6686E-03 ( 23,  1, 86)  0.6798E-04 ( 16,  1, 88)  0.7347E-04 ( 16,  1, 88)  0.4903E-06 ( 17,  1, 90)
 
 SOLVING FOR HEAD 


     2 CALLS TO PCG ROUTINE FOR TIME STEP   1 IN STRESS PERIOD    1
    10 TOTAL ITERATIONS

 MAXIMUM HEAD CHANGE FOR EACH ITERATION (1 INDICATES THE FIRST INNER ITERATION):

    HEAD CHANGE    HEAD CHANGE    HEAD CHANGE    HEAD CHANGE    HEAD CHANGE 
   LAYER,ROW,COL  LAYER,ROW,COL  LAYER,ROW,COL  LAYER,ROW,COL  LAYER,ROW,COL
 ---------------------------------------------------------------------------
  1 -0.1386E-01  0  0.6553E-02  0  0.6044E-02  0 -0.1343E-01  0  0.1022E-01
   ( 15,  1, 86)  ( 11,  1, 49)  (  8,  1, 12)  ( 11,  1, 50)  ( 11,  1, 51)
  0  0.2430E-02  0 -0.1036E-02  0  0.1009E-02  0 -0.7236E-03  1 -0.2007E-03
   ( 11,  1, 61)  (  8,  1, 42)  ( 11,  1, 54)  ( 11,  1, 54)  ( 11,  1, 62)

 MAXIMUM RESIDUAL FOR EACH ITERATION (1 INDICATES THE FIRST INNER ITERATION):

    RESIDUAL       RESIDUAL       RESIDUAL       RESIDUAL       RESIDUAL    
   LAYER,ROW,COL  LAYER,ROW,COL  LAYER,ROW,COL  LAYER,ROW,COL  LAYER,ROW,COL
 ---------------------------------------------------------------------------
  1 -0.1352E+06  0  0.9449E+05  0  0.9418E+05  0  0.6641E+05  0   5853.    
   ( 21,  1, 89)  ( 19,  1, 89)  ( 19,  1, 89)  ( 19,  1, 89)  ( 17,  1, 87)
  0  -2907.      0  -2593.      0  -1357.      0  -387.7      1   336.9    
   ( 17,  1, 88)  ( 22,  1, 87)  ( 22,  1, 87)  ( 22,  1, 87)  ( 18,  1, 90)


 FLOW MODEL IS TRANSIENT
 FLOW MODEL CONTAINS CONSTANT-HEAD CELLS


 MAXIMUM STEPSIZE DURING WHICH ANY PARTICLE CANNOT MOVE MORE THAN ONE CELL
 =  13.18    (WHEN MIN. R.F.=1)  AT K=  17, I=   1, J=  90

 MAXIMUM STEPSIZE WHICH MEETS STABILITY CRITERION OF THE ADVECTION TERM
 (FOR PURE FINITE-DIFFERENCE OPTION, MIXELM=0) 
 =  7.981    (WHEN MIN. R.F.=1)  AT K=  16, I=   1, J=  90


 TOTAL NUMBER OF POINT SOURCES/SINKS PRESENT IN THE FLOW MODEL =    30

 MAXIMUM STEPSIZE WHICH MEETS STABILITY CRITERION OF THE SINK & SOURCE TERM
 =  12.11    (WHEN MIN. R.F.=1)  AT K=  17, I=   1, J=  91

 MAXIMUM STEPSIZE WHICH MEETS STABILITY CRITERION OF THE DISPERSION TERM
 =  4.363    (WHEN MIN. R.F.=1)  AT K=  17, I=   1, J=  90
     1 CALLS TO GCG PACKAGE FOR TRANSPORT TIME STEP 106 IN FLOW TIME STEP   1 STRESS PERIOD   1
     9 TOTAL ITERATIONS
     1 CALLS TO GCG PACKAGE FOR TRANSPORT TIME STEP 106 IN FLOW TIME STEP   1 STRESS PERIOD   1
     9 TOTAL ITERATIONS
 
 SOLVING FOR HEAD 


     2 CALLS TO PCG ROUTINE FOR TIME STEP   1 IN STRESS PERIOD    1
     8 TOTAL ITERATIONS

 MAXIMUM HEAD CHANGE FOR EACH ITERATION (1 INDICATES THE FIRST INNER ITERATION):

    HEAD CHANGE    HEAD CHANGE    HEAD CHANGE    HEAD CHANGE    HEAD CHANGE 
   LAYER,ROW,COL  LAYER,ROW,COL  LAYER,ROW,COL  LAYER,ROW,COL  LAYER,ROW,COL
 ---------------------------------------------------------------------------
  1  0.1345E-01  0 -0.4041E-02  0 -0.2374E-02  0 -0.5829E-02  0  0.7588E-02
   ( 15,  1, 86)  ( 17,  1, 89)  (  8,  1, 12)  ( 11,  1, 54)  ( 11,  1, 54)
  0  0.1789E-02  0 -0.7766E-03  1 -0.6587E-03
   ( 11,  1, 43)  ( 11,  1, 54)  ( 11,  1, 62)

 MAXIMUM RESIDUAL FOR EACH ITERATION (1 INDICATES THE FIRST INNER ITERATION):

    RESIDUAL       RESIDUAL       RESIDUAL       RESIDUAL       RESIDUAL    
   LAYER,ROW,COL  LAYER,ROW,COL  LAYER,ROW,COL  LAYER,ROW,COL  LAYER,ROW,COL
 ---------------------------------------------------------------------------
  1  0.1349E+06  0 -0.9536E+05  0 -0.9382E+05  0 -0.1594E+05  0   4656.    
   ( 21,  1, 89)  ( 19,  1, 89)  ( 19,  1, 89)  ( 19,  1, 89)  ( 17,  1, 88)
  0   2779.      0   2418.      1   2038.    
   ( 22,  1, 87)  ( 22,  1, 87)  ( 22,  1, 87)


 FLOW MODEL IS TRANSIENT
 FLOW MODEL CONTAINS CONSTANT-HEAD CELLS


 MAXIMUM STEPSIZE DURING WHICH ANY PARTICLE CANNOT MOVE MORE THAN ONE CELL
 =  12.80    (WHEN MIN. R.F.=1)  AT K=  17, I=   1, J=  90

 MAXIMUM STEPSIZE WHICH MEETS STABILITY CRITERION OF THE ADVECTION TERM
 (FOR PURE FINITE-DIFFERENCE OPTION, MIXELM=0) 
 =  8.015    (WHEN MIN. R.F.=1)  AT K=  16, I=   1, J=  90


 TOTAL NUMBER OF POINT SOURCES/SINKS PRESENT IN THE FLOW MODEL =    30

 MAXIMUM STEPSIZE WHICH MEETS STABILITY CRITERION OF THE SINK & SOURCE TERM
 =  12.16    (WHEN MIN. R.F.=1)  AT K=  17, I=   1, J=  91

 MAXIMUM STEPSIZE WHICH MEETS STABILITY CRITERION OF THE DISPERSION TERM
 =  4.010    (WHEN MIN. R.F.=1)  AT K=  17, I=   1, J=  90
     1 CALLS TO GCG PACKAGE FOR TRANSPORT TIME STEP 107 IN FLOW TIME STEP   1 STRESS PERIOD   1
     8 TOTAL ITERATIONS
     1 CALLS TO GCG PACKAGE FOR TRANSPORT TIME STEP 107 IN FLOW TIME STEP   1 STRESS PERIOD   1
     9 TOTAL ITERATIONS
 
 SOLVING FOR HEAD 


     2 CALLS TO PCG ROUTINE FOR TIME STEP   1 IN STRESS PERIOD    1
     9 TOTAL ITERATIONS

 MAXIMUM HEAD CHANGE FOR EACH ITERATION (1 INDICATES THE FIRST INNER ITERATION):

    HEAD CHANGE    HEAD CHANGE    HEAD CHANGE    HEAD CHANGE    HEAD CHANGE 
   LAYER,ROW,COL  LAYER,ROW,COL  LAYER,ROW,COL  LAYER,ROW,COL  LAYER,ROW,COL
 ---------------------------------------------------------------------------
  1 -0.1368E-01  0 -0.6015E-02  0  0.4095E-02  0  0.8974E-02  0 -0.6821E-02
   ( 15,  1, 86)  (  6,  1, 39)  (  7,  1, 12)  ( 11,  1, 63)  ( 10,  1, 54)
  0  0.3364E-02  0  0.1261E-02  0  0.5043E-03  1 -0.3534E-03
   ( 11,  1, 69)  ( 11,  1, 62)  ( 11,  1, 55)  ( 11,  1, 60)

 MAXIMUM RESIDUAL FOR EACH ITERATION (1 INDICATES THE FIRST INNER ITERATION):

    RESIDUAL       RESIDUAL       RESIDUAL       RESIDUAL       RESIDUAL    
   LAYER,ROW,COL  LAYER,ROW,COL  LAYER,ROW,COL  LAYER,ROW,COL  LAYER,ROW,COL
 ---------------------------------------------------------------------------
  1 -0.1345E+06  0  0.9458E+05  0  0.9384E+05  0  0.7113E+05  0   6537.    
   ( 21,  1, 89)  ( 19,  1, 89)  ( 19,  1, 89)  ( 19,  1, 89)  ( 17,  1, 87)
  0  -3067.      0  -2539.      0  -853.2      1  -753.2    
   ( 17,  1, 88)  ( 22,  1, 87)  ( 22,  1, 87)  ( 22,  1, 87)


 FLOW MODEL IS TRANSIENT
 FLOW MODEL CONTAINS CONSTANT-HEAD CELLS


 MAXIMUM STEPSIZE DURING WHICH ANY PARTICLE CANNOT MOVE MORE THAN ONE CELL
 =  13.15    (WHEN MIN. R.F.=1)  AT K=  17, I=   1, J=  90

 MAXIMUM STEPSIZE WHICH MEETS STABILITY CRITERION OF THE ADVECTION TERM
 (FOR PURE FINITE-DIFFERENCE OPTION, MIXELM=0) 
 =  7.971    (WHEN MIN. R.F.=1)  AT K=  16, I=   1, J=  90


 TOTAL NUMBER OF POINT SOURCES/SINKS PRESENT IN THE FLOW MODEL =    30

 MAXIMUM STEPSIZE WHICH MEETS STABILITY CRITERION OF THE SINK & SOURCE TERM
 =  12.08    (WHEN MIN. R.F.=1)  AT K=  17, I=   1, J=  91

 MAXIMUM STEPSIZE WHICH MEETS STABILITY CRITERION OF THE DISPERSION TERM
 =  4.346    (WHEN MIN. R.F.=1)  AT K=  17, I=   1, J=  90
     1 CALLS TO GCG PACKAGE FOR TRANSPORT TIME STEP 108 IN FLOW TIME STEP   1 STRESS PERIOD   1
     8 TOTAL ITERATIONS
     1 CALLS TO GCG PACKAGE FOR TRANSPORT TIME STEP 108 IN FLOW TIME STEP   1 STRESS PERIOD   1
     9 TOTAL ITERATIONS
 
 SOLVING FOR HEAD 


     2 CALLS TO PCG ROUTINE FOR TIME STEP   1 IN STRESS PERIOD    1
     8 TOTAL ITERATIONS

 MAXIMUM HEAD CHANGE FOR EACH ITERATION (1 INDICATES THE FIRST INNER ITERATION):

    HEAD CHANGE    HEAD CHANGE    HEAD CHANGE    HEAD CHANGE    HEAD CHANGE 
   LAYER,ROW,COL  LAYER,ROW,COL  LAYER,ROW,COL  LAYER,ROW,COL  LAYER,ROW,COL
 ---------------------------------------------------------------------------
  1  0.1366E-01  0 -0.4113E-02  0 -0.3179E-02  0  0.8249E-02  0 -0.8747E-02
   ( 15,  1, 86)  ( 17,  1, 89)  (  8,  1, 12)  ( 11,  1, 54)  ( 11,  1, 54)
  0  0.1895E-02  0 -0.6831E-03  1  0.4080E-03
   ( 11,  1, 54)  ( 11,  1, 54)  ( 11,  1, 54)

 MAXIMUM RESIDUAL FOR EACH ITERATION (1 INDICATES THE FIRST INNER ITERATION):

    RESIDUAL       RESIDUAL       RESIDUAL       RESIDUAL       RESIDUAL    
   LAYER,ROW,COL  LAYER,ROW,COL  LAYER,ROW,COL  LAYER,ROW,COL  LAYER,ROW,COL
 ---------------------------------------------------------------------------
  1  0.1334E+06  0 -0.9388E+05  0 -0.9295E+05  0 -0.2353E+05  0   5174.    
   ( 21,  1, 89)  ( 19,  1, 89)  ( 19,  1, 89)  ( 19,  1, 89)  ( 17,  1, 88)
  0   2786.      0   2341.      1   1992.    
   ( 22,  1, 87)  ( 22,  1, 87)  ( 22,  1, 87)


 FLOW MODEL IS TRANSIENT
 FLOW MODEL CONTAINS CONSTANT-HEAD CELLS


 MAXIMUM STEPSIZE DURING WHICH ANY PARTICLE CANNOT MOVE MORE THAN ONE CELL
 =  12.82    (WHEN MIN. R.F.=1)  AT K=  17, I=   1, J=  90

 MAXIMUM STEPSIZE WHICH MEETS STABILITY CRITERION OF THE ADVECTION TERM
 (FOR PURE FINITE-DIFFERENCE OPTION, MIXELM=0) 
 =  8.019    (WHEN MIN. R.F.=1)  AT K=  16, I=   1, J=  90


 TOTAL NUMBER OF POINT SOURCES/SINKS PRESENT IN THE FLOW MODEL =    30

 MAXIMUM STEPSIZE WHICH MEETS STABILITY CRITERION OF THE SINK & SOURCE TERM
 =  12.17    (WHEN MIN. R.F.=1)  AT K=  17, I=   1, J=  91

 MAXIMUM STEPSIZE WHICH MEETS STABILITY CRITERION OF THE DISPERSION TERM
 =  4.018    (WHEN MIN. R.F.=1)  AT K=  17, I=   1, J=  90
     1 CALLS TO GCG PACKAGE FOR TRANSPORT TIME STEP 109 IN FLOW TIME STEP   1 STRESS PERIOD   1
     8 TOTAL ITERATIONS
     1 CALLS TO GCG PACKAGE FOR TRANSPORT TIME STEP 109 IN FLOW TIME STEP   1 STRESS PERIOD   1
     9 TOTAL ITERATIONS
 
 SOLVING FOR HEAD 


     2 CALLS TO PCG ROUTINE FOR TIME STEP   1 IN STRESS PERIOD    1
     8 TOTAL ITERATIONS

 MAXIMUM HEAD CHANGE FOR EACH ITERATION (1 INDICATES THE FIRST INNER ITERATION):

    HEAD CHANGE    HEAD CHANGE    HEAD CHANGE    HEAD CHANGE    HEAD CHANGE 
   LAYER,ROW,COL  LAYER,ROW,COL  LAYER,ROW,COL  LAYER,ROW,COL  LAYER,ROW,COL
 ---------------------------------------------------------------------------
  1 -0.1363E-01  0  0.4043E-02  0  0.3853E-02  0 -0.1013E-01  0  0.9103E-02
   ( 15,  1, 86)  ( 17,  1, 89)  (  8,  1, 12)  ( 11,  1, 53)  ( 11,  1, 53)
  0 -0.2657E-02  0 -0.9741E-03  1  0.5358E-03
   ( 11,  1, 49)  (  7,  1, 33)  (  7,  1, 40)

 MAXIMUM RESIDUAL FOR EACH ITERATION (1 INDICATES THE FIRST INNER ITERATION):

    RESIDUAL       RESIDUAL       RESIDUAL       RESIDUAL       RESIDUAL    
   LAYER,ROW,COL  LAYER,ROW,COL  LAYER,ROW,COL  LAYER,ROW,COL  LAYER,ROW,COL
 ---------------------------------------------------------------------------
  1 -0.1337E+06  0  0.9470E+05  0  0.9391E+05  0  0.5411E+05  0   5849.    
   ( 21,  1, 89)  ( 19,  1, 89)  ( 19,  1, 89)  ( 19,  1, 89)  ( 17,  1, 87)
  0  -2933.      0  -2547.      1  -1697.    
   ( 17,  1, 88)  ( 22,  1, 87)  ( 22,  1, 87)


 FLOW MODEL IS TRANSIENT
 FLOW MODEL CONTAINS CONSTANT-HEAD CELLS


 MAXIMUM STEPSIZE DURING WHICH ANY PARTICLE CANNOT MOVE MORE THAN ONE CELL
 =  13.17    (WHEN MIN. R.F.=1)  AT K=  17, I=   1, J=  90

 MAXIMUM STEPSIZE WHICH MEETS STABILITY CRITERION OF THE ADVECTION TERM
 (FOR PURE FINITE-DIFFERENCE OPTION, MIXELM=0) 
 =  7.979    (WHEN MIN. R.F.=1)  AT K=  16, I=   1, J=  90


 TOTAL NUMBER OF POINT SOURCES/SINKS PRESENT IN THE FLOW MODEL =    30

 MAXIMUM STEPSIZE WHICH MEETS STABILITY CRITERION OF THE SINK & SOURCE TERM
 =  12.11    (WHEN MIN. R.F.=1)  AT K=  17, I=   1, J=  91

 MAXIMUM STEPSIZE WHICH MEETS STABILITY CRITERION OF THE DISPERSION TERM
 =  4.356    (WHEN MIN. R.F.=1)  AT K=  17, I=   1, J=  90
     1 CALLS TO GCG PACKAGE FOR TRANSPORT TIME STEP 110 IN FLOW TIME STEP   1 STRESS PERIOD   1
    10 TOTAL ITERATIONS
  MAXIMUM CONCENTRATION CHANGES FOR EACH ITERATION:
  MAX. CHANGE LAYER,ROW,COL MAX. CHANGE LAYER,ROW,COL MAX. CHANGE LAYER,ROW,COL MAX. CHANGE LAYER,ROW,COL MAX. CHANGE LAYER,ROW,COL
 ------------------------------------------------------------------------------------------------------------------------------------
   0.4843E-01 ( 20,  1, 87)  0.3289E-02 ( 19,  1, 87)  0.2139E-02 ( 18,  1, 87)  0.2137E-03 ( 16,  1, 88)  0.1462E-03 ( 16,  1, 89)
   0.2686E-04 ( 16,  1, 90)  0.4188E-05 ( 21,  1, 78)  0.4991E-05 ( 16,  1, 89)  0.3039E-05 ( 16,  1, 89)  0.1128E-06 ( 17,  1, 90)
     1 CALLS TO GCG PACKAGE FOR TRANSPORT TIME STEP 110 IN FLOW TIME STEP   1 STRESS PERIOD   1
     9 TOTAL ITERATIONS
  MAXIMUM CONCENTRATION CHANGES FOR EACH ITERATION:
  MAX. CHANGE LAYER,ROW,COL MAX. CHANGE LAYER,ROW,COL MAX. CHANGE LAYER,ROW,COL MAX. CHANGE LAYER,ROW,COL MAX. CHANGE LAYER,ROW,COL
 ------------------------------------------------------------------------------------------------------------------------------------
   0.6049E-01 ( 19,  1, 88)  0.9581E-02 ( 20,  1, 87)  0.1029E-02 ( 23,  1, 88)  0.2184E-03 ( 17,  1, 90)  0.7625E-03 ( 17,  1, 90)
   0.4307E-04 ( 17,  1, 90)  0.5527E-05 ( 17,  1, 90)  0.1618E-05 ( 17,  1, 90)  0.1446E-06 ( 17,  1, 90)



 >>>>>>>>>>>>>>>>>>>>>>>>>>>>>>>>>>>>>>>>>>>>>>>>>>>>>>>FOR COMPONENT NO. 01<<<<<<<<<<<<<<<<<<<<<<<<<<<<<<<<<<<<<<<<<<<<<<<<<<<<<<<


                                            -------------------------------------------
                                                      TRANSPORT STEP NO.  110
                                            -------------------------------------------

 TOTAL ELAPSED TIME SINCE BEGINNING OF SIMULATION =   5500.000    D   
 .....................................................................

                     CUMMULATIVE MASS BUDGETS AT END OF TRANSPORT STEP  110, TIME STEP    1, STRESS PERIOD    1
                     ------------------------------------------------------------------------------------------

                                                             IN                           OUT
                                                      ----------------             ----------------
                               CONSTANT CONCENTRATION:    0.000000                    0.000000    
                                        CONSTANT HEAD:   0.2178543E+09              -0.2177101E+09
                                                WELLS:    0.000000                    0.000000    
                                             RECHARGE:    0.000000                    0.000000    
                               1ST/0TH ORDER REACTION:    0.000000                    0.000000    
                                MASS STORAGE (SOLUTE):   0.3054826E+08              -0.3069252E+08
                            ---------------------------------------------------------------------------
                                              [TOTAL]:   0.2484028E+09 KG           -0.2484028E+09 KG  

                                                          NET (IN - OUT):   -59.70234    
                                                   DISCREPANCY (PERCENT):  -0.2403449E-04



 >>>>>>>>>>>>>>>>>>>>>>>>>>>>>>>>>>>>>>>>>>>>>>>>>>>>>>>FOR COMPONENT NO. 02<<<<<<<<<<<<<<<<<<<<<<<<<<<<<<<<<<<<<<<<<<<<<<<<<<<<<<<


                                            -------------------------------------------
                                                      TRANSPORT STEP NO.  110
                                            -------------------------------------------

 TOTAL ELAPSED TIME SINCE BEGINNING OF SIMULATION =   5500.000    D   
 .....................................................................

                     CUMMULATIVE MASS BUDGETS AT END OF TRANSPORT STEP  110, TIME STEP    1, STRESS PERIOD    1
                     ------------------------------------------------------------------------------------------

                                                             IN                           OUT
                                                      ----------------             ----------------
                               CONSTANT CONCENTRATION:    0.000000                    0.000000    
                                        CONSTANT HEAD:    0.000000                  -0.1094596E+11
                                                WELLS:    0.000000                    0.000000    
                                             RECHARGE:    0.000000                    0.000000    
                               1ST/0TH ORDER REACTION:   0.9102500E+11                0.000000    
                                MASS STORAGE (SOLUTE):   0.1634799E+10              -0.8171384E+11
                            ---------------------------------------------------------------------------
                                              [TOTAL]:   0.9265984E+11 KG           -0.9265984E+11 KG  

                                                          NET (IN - OUT):    116.1334    
                                                   DISCREPANCY (PERCENT):   0.1253330E-06
 
 SOLVING FOR HEAD 


     2 CALLS TO PCG ROUTINE FOR TIME STEP   1 IN STRESS PERIOD    1
     9 TOTAL ITERATIONS

 MAXIMUM HEAD CHANGE FOR EACH ITERATION (1 INDICATES THE FIRST INNER ITERATION):

    HEAD CHANGE    HEAD CHANGE    HEAD CHANGE    HEAD CHANGE    HEAD CHANGE 
   LAYER,ROW,COL  LAYER,ROW,COL  LAYER,ROW,COL  LAYER,ROW,COL  LAYER,ROW,COL
 ---------------------------------------------------------------------------
  1  0.1379E-01  0  0.1034E-01  0 -0.4121E-02  0 -0.9660E-02  0  0.5938E-02
   ( 15,  1, 86)  (  7,  1, 40)  (  7,  1, 12)  (  6,  1, 41)  (  8,  1, 47)
  0  0.4364E-02  0 -0.1553E-02  0 -0.8013E-03  1  0.6280E-03
   ( 11,  1, 49)  ( 11,  1, 49)  ( 11,  1, 70)  ( 11,  1, 70)

 MAXIMUM RESIDUAL FOR EACH ITERATION (1 INDICATES THE FIRST INNER ITERATION):

    RESIDUAL       RESIDUAL       RESIDUAL       RESIDUAL       RESIDUAL    
   LAYER,ROW,COL  LAYER,ROW,COL  LAYER,ROW,COL  LAYER,ROW,COL  LAYER,ROW,COL
 ---------------------------------------------------------------------------
  1  0.1357E+06  0 -0.9570E+05  0 -0.9492E+05  0 -0.8067E+05  0   6723.    
   ( 21,  1, 89)  ( 19,  1, 89)  ( 19,  1, 89)  ( 19,  1, 89)  ( 17,  1, 88)
  0   3348.      0   2542.      0   1408.      1   1252.    
   ( 17,  1, 88)  ( 22,  1, 87)  ( 22,  1, 87)  ( 22,  1, 87)


 FLOW MODEL IS TRANSIENT
 FLOW MODEL CONTAINS CONSTANT-HEAD CELLS


 MAXIMUM STEPSIZE DURING WHICH ANY PARTICLE CANNOT MOVE MORE THAN ONE CELL
 =  12.86    (WHEN MIN. R.F.=1)  AT K=  17, I=   1, J=  90

 MAXIMUM STEPSIZE WHICH MEETS STABILITY CRITERION OF THE ADVECTION TERM
 (FOR PURE FINITE-DIFFERENCE OPTION, MIXELM=0) 
 =  8.039    (WHEN MIN. R.F.=1)  AT K=  16, I=   1, J=  90


 TOTAL NUMBER OF POINT SOURCES/SINKS PRESENT IN THE FLOW MODEL =    30

 MAXIMUM STEPSIZE WHICH MEETS STABILITY CRITERION OF THE SINK & SOURCE TERM
 =  12.22    (WHEN MIN. R.F.=1)  AT K=  17, I=   1, J=  91

 MAXIMUM STEPSIZE WHICH MEETS STABILITY CRITERION OF THE DISPERSION TERM
 =  4.032    (WHEN MIN. R.F.=1)  AT K=  17, I=   1, J=  90
     1 CALLS TO GCG PACKAGE FOR TRANSPORT TIME STEP 111 IN FLOW TIME STEP   1 STRESS PERIOD   1
     8 TOTAL ITERATIONS
     1 CALLS TO GCG PACKAGE FOR TRANSPORT TIME STEP 111 IN FLOW TIME STEP   1 STRESS PERIOD   1
     9 TOTAL ITERATIONS
 
 SOLVING FOR HEAD 


     2 CALLS TO PCG ROUTINE FOR TIME STEP   1 IN STRESS PERIOD    1
     8 TOTAL ITERATIONS

 MAXIMUM HEAD CHANGE FOR EACH ITERATION (1 INDICATES THE FIRST INNER ITERATION):

    HEAD CHANGE    HEAD CHANGE    HEAD CHANGE    HEAD CHANGE    HEAD CHANGE 
   LAYER,ROW,COL  LAYER,ROW,COL  LAYER,ROW,COL  LAYER,ROW,COL  LAYER,ROW,COL
 ---------------------------------------------------------------------------
  1 -0.1354E-01  0  0.4092E-02  0  0.2898E-02  0  0.1080E-01  0 -0.1212E-01
   ( 15,  1, 86)  ( 17,  1, 89)  (  8,  1, 12)  ( 11,  1, 54)  ( 11,  1, 54)
  0  0.1972E-02  0  0.7184E-03  1  0.6340E-03
   ( 11,  1, 55)  ( 11,  1, 70)  ( 11,  1, 44)

 MAXIMUM RESIDUAL FOR EACH ITERATION (1 INDICATES THE FIRST INNER ITERATION):

    RESIDUAL       RESIDUAL       RESIDUAL       RESIDUAL       RESIDUAL    
   LAYER,ROW,COL  LAYER,ROW,COL  LAYER,ROW,COL  LAYER,ROW,COL  LAYER,ROW,COL
 ---------------------------------------------------------------------------
  1 -0.1343E+06  0  0.9569E+05  0  0.9464E+05  0  0.2216E+05  0  -5128.    
   ( 21,  1, 89)  ( 19,  1, 89)  ( 19,  1, 89)  ( 19,  1, 89)  ( 17,  1, 88)
  0  -2753.      0  -2368.      1  -2020.    
   ( 22,  1, 87)  ( 22,  1, 87)  ( 22,  1, 87)


 FLOW MODEL IS TRANSIENT
 FLOW MODEL CONTAINS CONSTANT-HEAD CELLS


 MAXIMUM STEPSIZE DURING WHICH ANY PARTICLE CANNOT MOVE MORE THAN ONE CELL
 =  13.23    (WHEN MIN. R.F.=1)  AT K=  17, I=   1, J=  90

 MAXIMUM STEPSIZE WHICH MEETS STABILITY CRITERION OF THE ADVECTION TERM
 (FOR PURE FINITE-DIFFERENCE OPTION, MIXELM=0) 
 =  8.001    (WHEN MIN. R.F.=1)  AT K=  16, I=   1, J=  90


 TOTAL NUMBER OF POINT SOURCES/SINKS PRESENT IN THE FLOW MODEL =    30

 MAXIMUM STEPSIZE WHICH MEETS STABILITY CRITERION OF THE SINK & SOURCE TERM
 =  12.17    (WHEN MIN. R.F.=1)  AT K=  17, I=   1, J=  91

 MAXIMUM STEPSIZE WHICH MEETS STABILITY CRITERION OF THE DISPERSION TERM
 =  4.382    (WHEN MIN. R.F.=1)  AT K=  17, I=   1, J=  90
     1 CALLS TO GCG PACKAGE FOR TRANSPORT TIME STEP 112 IN FLOW TIME STEP   1 STRESS PERIOD   1
    10 TOTAL ITERATIONS
     1 CALLS TO GCG PACKAGE FOR TRANSPORT TIME STEP 112 IN FLOW TIME STEP   1 STRESS PERIOD   1
     9 TOTAL ITERATIONS
 
 SOLVING FOR HEAD 


     2 CALLS TO PCG ROUTINE FOR TIME STEP   1 IN STRESS PERIOD    1
     8 TOTAL ITERATIONS

 MAXIMUM HEAD CHANGE FOR EACH ITERATION (1 INDICATES THE FIRST INNER ITERATION):

    HEAD CHANGE    HEAD CHANGE    HEAD CHANGE    HEAD CHANGE    HEAD CHANGE 
   LAYER,ROW,COL  LAYER,ROW,COL  LAYER,ROW,COL  LAYER,ROW,COL  LAYER,ROW,COL
 ---------------------------------------------------------------------------
  1  0.1378E-01  0  0.4874E-02  0 -0.5049E-02  0 -0.1005E-01  0 -0.8204E-02
   ( 15,  1, 86)  (  8,  1, 12)  (  8,  1, 12)  ( 11,  1, 44)  (  9,  1, 52)
  0  0.2450E-02  0 -0.9042E-03  1  0.4134E-03
   (  8,  1, 38)  ( 11,  1, 45)  ( 11,  1, 49)

 MAXIMUM RESIDUAL FOR EACH ITERATION (1 INDICATES THE FIRST INNER ITERATION):

    RESIDUAL       RESIDUAL       RESIDUAL       RESIDUAL       RESIDUAL    
   LAYER,ROW,COL  LAYER,ROW,COL  LAYER,ROW,COL  LAYER,ROW,COL  LAYER,ROW,COL
 ---------------------------------------------------------------------------
  1  0.1364E+06  0 -0.9655E+05  0 -0.9597E+05  0 -0.6722E+05  0  -6039.    
   ( 21,  1, 89)  ( 19,  1, 89)  ( 19,  1, 89)  ( 19,  1, 89)  ( 17,  1, 87)
  0   2997.      0   2568.      1   1494.    
   ( 17,  1, 88)  ( 22,  1, 87)  ( 22,  1, 87)


 FLOW MODEL IS TRANSIENT
 FLOW MODEL CONTAINS CONSTANT-HEAD CELLS


 MAXIMUM STEPSIZE DURING WHICH ANY PARTICLE CANNOT MOVE MORE THAN ONE CELL
 =  12.88    (WHEN MIN. R.F.=1)  AT K=  17, I=   1, J=  90

 MAXIMUM STEPSIZE WHICH MEETS STABILITY CRITERION OF THE ADVECTION TERM
 (FOR PURE FINITE-DIFFERENCE OPTION, MIXELM=0) 
 =  8.047    (WHEN MIN. R.F.=1)  AT K=  16, I=   1, J=  90


 TOTAL NUMBER OF POINT SOURCES/SINKS PRESENT IN THE FLOW MODEL =    30

 MAXIMUM STEPSIZE WHICH MEETS STABILITY CRITERION OF THE SINK & SOURCE TERM
 =  12.26    (WHEN MIN. R.F.=1)  AT K=  17, I=   1, J=  91

 MAXIMUM STEPSIZE WHICH MEETS STABILITY CRITERION OF THE DISPERSION TERM
 =  4.037    (WHEN MIN. R.F.=1)  AT K=  17, I=   1, J=  90
     1 CALLS TO GCG PACKAGE FOR TRANSPORT TIME STEP 113 IN FLOW TIME STEP   1 STRESS PERIOD   1
     8 TOTAL ITERATIONS
     1 CALLS TO GCG PACKAGE FOR TRANSPORT TIME STEP 113 IN FLOW TIME STEP   1 STRESS PERIOD   1
     9 TOTAL ITERATIONS
 
 SOLVING FOR HEAD 


     2 CALLS TO PCG ROUTINE FOR TIME STEP   1 IN STRESS PERIOD    1
     9 TOTAL ITERATIONS

 MAXIMUM HEAD CHANGE FOR EACH ITERATION (1 INDICATES THE FIRST INNER ITERATION):

    HEAD CHANGE    HEAD CHANGE    HEAD CHANGE    HEAD CHANGE    HEAD CHANGE 
   LAYER,ROW,COL  LAYER,ROW,COL  LAYER,ROW,COL  LAYER,ROW,COL  LAYER,ROW,COL
 ---------------------------------------------------------------------------
  1 -0.1363E-01  0  0.7725E-02  0  0.5148E-02  0 -0.1138E-01  0  0.7439E-02
   ( 15,  1, 86)  ( 11,  1, 50)  (  8,  1, 12)  ( 11,  1, 50)  (  7,  1, 39)
  0 -0.2697E-02  0 -0.1128E-02  0  0.9091E-03  1  0.6806E-03
   (  8,  1, 51)  ( 11,  1, 49)  ( 11,  1, 70)  ( 11,  1, 66)

 MAXIMUM RESIDUAL FOR EACH ITERATION (1 INDICATES THE FIRST INNER ITERATION):

    RESIDUAL       RESIDUAL       RESIDUAL       RESIDUAL       RESIDUAL    
   LAYER,ROW,COL  LAYER,ROW,COL  LAYER,ROW,COL  LAYER,ROW,COL  LAYER,ROW,COL
 ---------------------------------------------------------------------------
  1 -0.1380E+06  0  0.9776E+05  0  0.9718E+05  0  0.7516E+05  0  -6337.    
   ( 21,  1, 89)  ( 19,  1, 89)  ( 19,  1, 89)  ( 19,  1, 89)  ( 17,  1, 88)
  0  -3222.      0  -2549.      0  -1710.      1  -1509.    
   ( 17,  1, 88)  ( 22,  1, 87)  ( 22,  1, 87)  ( 22,  1, 87)


 FLOW MODEL IS TRANSIENT
 FLOW MODEL CONTAINS CONSTANT-HEAD CELLS


 MAXIMUM STEPSIZE DURING WHICH ANY PARTICLE CANNOT MOVE MORE THAN ONE CELL
 =  13.22    (WHEN MIN. R.F.=1)  AT K=  17, I=   1, J=  90

 MAXIMUM STEPSIZE WHICH MEETS STABILITY CRITERION OF THE ADVECTION TERM
 (FOR PURE FINITE-DIFFERENCE OPTION, MIXELM=0) 
 =  7.996    (WHEN MIN. R.F.=1)  AT K=  16, I=   1, J=  90


 TOTAL NUMBER OF POINT SOURCES/SINKS PRESENT IN THE FLOW MODEL =    30

 MAXIMUM STEPSIZE WHICH MEETS STABILITY CRITERION OF THE SINK & SOURCE TERM
 =  12.17    (WHEN MIN. R.F.=1)  AT K=  17, I=   1, J=  91

 MAXIMUM STEPSIZE WHICH MEETS STABILITY CRITERION OF THE DISPERSION TERM
 =  4.379    (WHEN MIN. R.F.=1)  AT K=  17, I=   1, J=  90
     1 CALLS TO GCG PACKAGE FOR TRANSPORT TIME STEP 114 IN FLOW TIME STEP   1 STRESS PERIOD   1
     7 TOTAL ITERATIONS
     1 CALLS TO GCG PACKAGE FOR TRANSPORT TIME STEP 114 IN FLOW TIME STEP   1 STRESS PERIOD   1
     9 TOTAL ITERATIONS
 
 SOLVING FOR HEAD 


     2 CALLS TO PCG ROUTINE FOR TIME STEP   1 IN STRESS PERIOD    1
     8 TOTAL ITERATIONS

 MAXIMUM HEAD CHANGE FOR EACH ITERATION (1 INDICATES THE FIRST INNER ITERATION):

    HEAD CHANGE    HEAD CHANGE    HEAD CHANGE    HEAD CHANGE    HEAD CHANGE 
   LAYER,ROW,COL  LAYER,ROW,COL  LAYER,ROW,COL  LAYER,ROW,COL  LAYER,ROW,COL
 ---------------------------------------------------------------------------
  1  0.1364E-01  0 -0.4178E-02  0 -0.4121E-02  0  0.1111E-01  0 -0.9753E-02
   ( 15,  1, 86)  ( 17,  1, 89)  (  8,  1, 12)  ( 11,  1, 53)  ( 11,  1, 53)
  0 -0.2390E-02  0 -0.8879E-03  1 -0.6800E-03
   ( 11,  1, 68)  ( 11,  1, 38)  ( 11,  1, 55)

 MAXIMUM RESIDUAL FOR EACH ITERATION (1 INDICATES THE FIRST INNER ITERATION):

    RESIDUAL       RESIDUAL       RESIDUAL       RESIDUAL       RESIDUAL    
   LAYER,ROW,COL  LAYER,ROW,COL  LAYER,ROW,COL  LAYER,ROW,COL  LAYER,ROW,COL
 ---------------------------------------------------------------------------
  1  0.1376E+06  0 -0.9825E+05  0 -0.9747E+05  0 -0.3970E+05  0   5810.    
   ( 21,  1, 89)  ( 19,  1, 89)  ( 19,  1, 89)  ( 19,  1, 89)  ( 17,  1, 88)
  0   2749.      0   2529.      1   1824.    
   ( 22,  1, 87)  ( 22,  1, 87)  ( 22,  1, 87)


 FLOW MODEL IS TRANSIENT
 FLOW MODEL CONTAINS CONSTANT-HEAD CELLS


 MAXIMUM STEPSIZE DURING WHICH ANY PARTICLE CANNOT MOVE MORE THAN ONE CELL
 =  12.84    (WHEN MIN. R.F.=1)  AT K=  17, I=   1, J=  90

 MAXIMUM STEPSIZE WHICH MEETS STABILITY CRITERION OF THE ADVECTION TERM
 (FOR PURE FINITE-DIFFERENCE OPTION, MIXELM=0) 
 =  8.034    (WHEN MIN. R.F.=1)  AT K=  16, I=   1, J=  90


 TOTAL NUMBER OF POINT SOURCES/SINKS PRESENT IN THE FLOW MODEL =    30

 MAXIMUM STEPSIZE WHICH MEETS STABILITY CRITERION OF THE SINK & SOURCE TERM
 =  12.22    (WHEN MIN. R.F.=1)  AT K=  17, I=   1, J=  91

 MAXIMUM STEPSIZE WHICH MEETS STABILITY CRITERION OF THE DISPERSION TERM
 =  4.023    (WHEN MIN. R.F.=1)  AT K=  17, I=   1, J=  90
     1 CALLS TO GCG PACKAGE FOR TRANSPORT TIME STEP 115 IN FLOW TIME STEP   1 STRESS PERIOD   1
     8 TOTAL ITERATIONS
  MAXIMUM CONCENTRATION CHANGES FOR EACH ITERATION:
  MAX. CHANGE LAYER,ROW,COL MAX. CHANGE LAYER,ROW,COL MAX. CHANGE LAYER,ROW,COL MAX. CHANGE LAYER,ROW,COL MAX. CHANGE LAYER,ROW,COL
 ------------------------------------------------------------------------------------------------------------------------------------
   0.5188E-01 ( 20,  1, 87)  0.4297E-02 ( 19,  1, 89)  0.2099E-02 ( 17,  1, 86)  0.5010E-03 ( 20,  1, 89)  0.9558E-04 ( 16,  1, 89)
   0.2164E-04 ( 20,  1, 89)  0.2376E-04 ( 16,  1, 90)  0.6100E-06 ( 17,  1, 90)
     1 CALLS TO GCG PACKAGE FOR TRANSPORT TIME STEP 115 IN FLOW TIME STEP   1 STRESS PERIOD   1
     9 TOTAL ITERATIONS
  MAXIMUM CONCENTRATION CHANGES FOR EACH ITERATION:
  MAX. CHANGE LAYER,ROW,COL MAX. CHANGE LAYER,ROW,COL MAX. CHANGE LAYER,ROW,COL MAX. CHANGE LAYER,ROW,COL MAX. CHANGE LAYER,ROW,COL
 ------------------------------------------------------------------------------------------------------------------------------------
   0.6461E-01 ( 20,  1, 87)  0.8504E-02 ( 20,  1, 87)  0.9471E-03 ( 23,  1, 87)  0.6107E-03 ( 17,  1, 90)  0.6623E-04 ( 16,  1, 89)
   0.3135E-04 ( 17,  1, 89)  0.1280E-04 ( 16,  1, 89)  0.3467E-05 ( 23,  1, 87)  0.3418E-06 ( 17,  1, 90)
 
 SOLVING FOR HEAD 


     2 CALLS TO PCG ROUTINE FOR TIME STEP   1 IN STRESS PERIOD    1
    10 TOTAL ITERATIONS

 MAXIMUM HEAD CHANGE FOR EACH ITERATION (1 INDICATES THE FIRST INNER ITERATION):

    HEAD CHANGE    HEAD CHANGE    HEAD CHANGE    HEAD CHANGE    HEAD CHANGE 
   LAYER,ROW,COL  LAYER,ROW,COL  LAYER,ROW,COL  LAYER,ROW,COL  LAYER,ROW,COL
 ---------------------------------------------------------------------------
  1 -0.1375E-01  0 -0.9570E-02  0  0.6369E-02  0  0.9325E-02  0 -0.6486E-02
   ( 15,  1, 86)  (  7,  1, 44)  (  8,  1, 12)  (  7,  1, 45)  (  7,  1, 45)
  0 -0.3695E-02  0  0.1542E-02  0  0.1046E-02  0 -0.6484E-03  1 -0.2167E-03
   ( 11,  1, 54)  ( 11,  1, 53)  ( 11,  1, 70)  ( 11,  1, 70)  ( 11,  1, 64)

 MAXIMUM RESIDUAL FOR EACH ITERATION (1 INDICATES THE FIRST INNER ITERATION):

    RESIDUAL       RESIDUAL       RESIDUAL       RESIDUAL       RESIDUAL    
   LAYER,ROW,COL  LAYER,ROW,COL  LAYER,ROW,COL  LAYER,ROW,COL  LAYER,ROW,COL
 ---------------------------------------------------------------------------
  1 -0.1373E+06  0  0.9668E+05  0  0.9641E+05  0  0.8013E+05  0   6563.    
   ( 21,  1, 89)  ( 19,  1, 89)  ( 19,  1, 89)  ( 19,  1, 89)  ( 17,  1, 87)
  0  -3377.      0  -2581.      0  -1504.      0  -417.6      1   356.0    
   ( 17,  1, 88)  ( 22,  1, 87)  ( 22,  1, 87)  ( 22,  1, 87)  ( 18,  1, 90)


 FLOW MODEL IS TRANSIENT
 FLOW MODEL CONTAINS CONSTANT-HEAD CELLS


 MAXIMUM STEPSIZE DURING WHICH ANY PARTICLE CANNOT MOVE MORE THAN ONE CELL
 =  13.19    (WHEN MIN. R.F.=1)  AT K=  17, I=   1, J=  90

 MAXIMUM STEPSIZE WHICH MEETS STABILITY CRITERION OF THE ADVECTION TERM
 (FOR PURE FINITE-DIFFERENCE OPTION, MIXELM=0) 
 =  7.984    (WHEN MIN. R.F.=1)  AT K=  16, I=   1, J=  90


 TOTAL NUMBER OF POINT SOURCES/SINKS PRESENT IN THE FLOW MODEL =    30

 MAXIMUM STEPSIZE WHICH MEETS STABILITY CRITERION OF THE SINK & SOURCE TERM
 =  12.13    (WHEN MIN. R.F.=1)  AT K=  17, I=   1, J=  91

 MAXIMUM STEPSIZE WHICH MEETS STABILITY CRITERION OF THE DISPERSION TERM
 =  4.367    (WHEN MIN. R.F.=1)  AT K=  17, I=   1, J=  90
     1 CALLS TO GCG PACKAGE FOR TRANSPORT TIME STEP 116 IN FLOW TIME STEP   1 STRESS PERIOD   1
     9 TOTAL ITERATIONS
     1 CALLS TO GCG PACKAGE FOR TRANSPORT TIME STEP 116 IN FLOW TIME STEP   1 STRESS PERIOD   1
     9 TOTAL ITERATIONS
 
 SOLVING FOR HEAD 


     2 CALLS TO PCG ROUTINE FOR TIME STEP   1 IN STRESS PERIOD    1
     8 TOTAL ITERATIONS

 MAXIMUM HEAD CHANGE FOR EACH ITERATION (1 INDICATES THE FIRST INNER ITERATION):

    HEAD CHANGE    HEAD CHANGE    HEAD CHANGE    HEAD CHANGE    HEAD CHANGE 
   LAYER,ROW,COL  LAYER,ROW,COL  LAYER,ROW,COL  LAYER,ROW,COL  LAYER,ROW,COL
 ---------------------------------------------------------------------------
  1  0.1344E-01  0 -0.3987E-02  0 -0.2359E-02  0 -0.4459E-02  0  0.6070E-02
   ( 15,  1, 86)  ( 17,  1, 89)  (  8,  1, 12)  ( 11,  1, 67)  ( 11,  1, 68)
  0  0.2029E-02  0 -0.8089E-03  1  0.4930E-03
   ( 11,  1, 49)  ( 11,  1, 52)  ( 11,  1, 52)

 MAXIMUM RESIDUAL FOR EACH ITERATION (1 INDICATES THE FIRST INNER ITERATION):

    RESIDUAL       RESIDUAL       RESIDUAL       RESIDUAL       RESIDUAL    
   LAYER,ROW,COL  LAYER,ROW,COL  LAYER,ROW,COL  LAYER,ROW,COL  LAYER,ROW,COL
 ---------------------------------------------------------------------------
  1  0.1356E+06  0 -0.9602E+05  0 -0.9429E+05  0 -0.1584E+05  0   4539.    
   ( 21,  1, 89)  ( 19,  1, 89)  ( 19,  1, 89)  ( 19,  1, 89)  ( 17,  1, 88)
  0   2787.      0   2323.      1   2028.    
   ( 22,  1, 87)  ( 22,  1, 87)  ( 22,  1, 87)


 FLOW MODEL IS TRANSIENT
 FLOW MODEL CONTAINS CONSTANT-HEAD CELLS


 MAXIMUM STEPSIZE DURING WHICH ANY PARTICLE CANNOT MOVE MORE THAN ONE CELL
 =  12.81    (WHEN MIN. R.F.=1)  AT K=  17, I=   1, J=  90

 MAXIMUM STEPSIZE WHICH MEETS STABILITY CRITERION OF THE ADVECTION TERM
 (FOR PURE FINITE-DIFFERENCE OPTION, MIXELM=0) 
 =  8.016    (WHEN MIN. R.F.=1)  AT K=  16, I=   1, J=  90


 TOTAL NUMBER OF POINT SOURCES/SINKS PRESENT IN THE FLOW MODEL =    30

 MAXIMUM STEPSIZE WHICH MEETS STABILITY CRITERION OF THE SINK & SOURCE TERM
 =  12.17    (WHEN MIN. R.F.=1)  AT K=  17, I=   1, J=  91

 MAXIMUM STEPSIZE WHICH MEETS STABILITY CRITERION OF THE DISPERSION TERM
 =  4.011    (WHEN MIN. R.F.=1)  AT K=  17, I=   1, J=  90
     1 CALLS TO GCG PACKAGE FOR TRANSPORT TIME STEP 117 IN FLOW TIME STEP   1 STRESS PERIOD   1
     8 TOTAL ITERATIONS
     1 CALLS TO GCG PACKAGE FOR TRANSPORT TIME STEP 117 IN FLOW TIME STEP   1 STRESS PERIOD   1
     9 TOTAL ITERATIONS
 
 SOLVING FOR HEAD 


     2 CALLS TO PCG ROUTINE FOR TIME STEP   1 IN STRESS PERIOD    1
     8 TOTAL ITERATIONS

 MAXIMUM HEAD CHANGE FOR EACH ITERATION (1 INDICATES THE FIRST INNER ITERATION):

    HEAD CHANGE    HEAD CHANGE    HEAD CHANGE    HEAD CHANGE    HEAD CHANGE 
   LAYER,ROW,COL  LAYER,ROW,COL  LAYER,ROW,COL  LAYER,ROW,COL  LAYER,ROW,COL
 ---------------------------------------------------------------------------
  1 -0.1368E-01  0 -0.5119E-02  0  0.3943E-02  0  0.8787E-02  0 -0.7436E-02
   ( 15,  1, 86)  (  6,  1, 36)  (  7,  1, 12)  (  8,  1, 55)  (  9,  1, 54)
  0 -0.2355E-02  0  0.9703E-03  1  0.7353E-03
   ( 11,  1, 42)  ( 11,  1, 42)  ( 11,  1, 54)

 MAXIMUM RESIDUAL FOR EACH ITERATION (1 INDICATES THE FIRST INNER ITERATION):

    RESIDUAL       RESIDUAL       RESIDUAL       RESIDUAL       RESIDUAL    
   LAYER,ROW,COL  LAYER,ROW,COL  LAYER,ROW,COL  LAYER,ROW,COL  LAYER,ROW,COL
 ---------------------------------------------------------------------------
  1 -0.1351E+06  0  0.9520E+05  0  0.9442E+05  0  0.6651E+05  0   6212.    
   ( 21,  1, 89)  ( 19,  1, 89)  ( 19,  1, 89)  ( 19,  1, 89)  ( 17,  1, 87)
  0  -2789.      0  -2542.      1  -1541.    
   ( 17,  1, 88)  ( 22,  1, 87)  ( 22,  1, 87)


 FLOW MODEL IS TRANSIENT
 FLOW MODEL CONTAINS CONSTANT-HEAD CELLS


 MAXIMUM STEPSIZE DURING WHICH ANY PARTICLE CANNOT MOVE MORE THAN ONE CELL
 =  13.15    (WHEN MIN. R.F.=1)  AT K=  17, I=   1, J=  90

 MAXIMUM STEPSIZE WHICH MEETS STABILITY CRITERION OF THE ADVECTION TERM
 (FOR PURE FINITE-DIFFERENCE OPTION, MIXELM=0) 
 =  7.973    (WHEN MIN. R.F.=1)  AT K=  16, I=   1, J=  90


 TOTAL NUMBER OF POINT SOURCES/SINKS PRESENT IN THE FLOW MODEL =    30

 MAXIMUM STEPSIZE WHICH MEETS STABILITY CRITERION OF THE SINK & SOURCE TERM
 =  12.08    (WHEN MIN. R.F.=1)  AT K=  17, I=   1, J=  91

 MAXIMUM STEPSIZE WHICH MEETS STABILITY CRITERION OF THE DISPERSION TERM
 =  4.347    (WHEN MIN. R.F.=1)  AT K=  17, I=   1, J=  90
     1 CALLS TO GCG PACKAGE FOR TRANSPORT TIME STEP 118 IN FLOW TIME STEP   1 STRESS PERIOD   1
    10 TOTAL ITERATIONS
     1 CALLS TO GCG PACKAGE FOR TRANSPORT TIME STEP 118 IN FLOW TIME STEP   1 STRESS PERIOD   1
     9 TOTAL ITERATIONS
 
 SOLVING FOR HEAD 


     2 CALLS TO PCG ROUTINE FOR TIME STEP   1 IN STRESS PERIOD    1
     8 TOTAL ITERATIONS

 MAXIMUM HEAD CHANGE FOR EACH ITERATION (1 INDICATES THE FIRST INNER ITERATION):

    HEAD CHANGE    HEAD CHANGE    HEAD CHANGE    HEAD CHANGE    HEAD CHANGE 
   LAYER,ROW,COL  LAYER,ROW,COL  LAYER,ROW,COL  LAYER,ROW,COL  LAYER,ROW,COL
 ---------------------------------------------------------------------------
  1  0.1376E-01  0  0.9202E-02  0 -0.3595E-02  0 -0.1285E-01  0  0.8844E-02
   ( 15,  1, 86)  ( 11,  1, 54)  (  8,  1, 12)  ( 11,  1, 54)  ( 11,  1, 54)
  0 -0.2727E-02  0  0.9669E-03  1 -0.9188E-03
   (  8,  1, 37)  (  7,  1, 36)  ( 11,  1, 70)

 MAXIMUM RESIDUAL FOR EACH ITERATION (1 INDICATES THE FIRST INNER ITERATION):

    RESIDUAL       RESIDUAL       RESIDUAL       RESIDUAL       RESIDUAL    
   LAYER,ROW,COL  LAYER,ROW,COL  LAYER,ROW,COL  LAYER,ROW,COL  LAYER,ROW,COL
 ---------------------------------------------------------------------------
  1  0.1352E+06  0 -0.9556E+05  0 -0.9467E+05  0 -0.7352E+05  0   6378.    
   ( 21,  1, 89)  ( 19,  1, 89)  ( 19,  1, 89)  ( 19,  1, 89)  ( 17,  1, 88)
  0   3233.      0   2525.      1   1873.    
   ( 17,  1, 88)  ( 22,  1, 87)  ( 22,  1, 87)


 FLOW MODEL IS TRANSIENT
 FLOW MODEL CONTAINS CONSTANT-HEAD CELLS


 MAXIMUM STEPSIZE DURING WHICH ANY PARTICLE CANNOT MOVE MORE THAN ONE CELL
 =  12.86    (WHEN MIN. R.F.=1)  AT K=  17, I=   1, J=  90

 MAXIMUM STEPSIZE WHICH MEETS STABILITY CRITERION OF THE ADVECTION TERM
 (FOR PURE FINITE-DIFFERENCE OPTION, MIXELM=0) 
 =  8.036    (WHEN MIN. R.F.=1)  AT K=  16, I=   1, J=  90


 TOTAL NUMBER OF POINT SOURCES/SINKS PRESENT IN THE FLOW MODEL =    30

 MAXIMUM STEPSIZE WHICH MEETS STABILITY CRITERION OF THE SINK & SOURCE TERM
 =  12.21    (WHEN MIN. R.F.=1)  AT K=  17, I=   1, J=  91

 MAXIMUM STEPSIZE WHICH MEETS STABILITY CRITERION OF THE DISPERSION TERM
 =  4.029    (WHEN MIN. R.F.=1)  AT K=  17, I=   1, J=  90
     1 CALLS TO GCG PACKAGE FOR TRANSPORT TIME STEP 119 IN FLOW TIME STEP   1 STRESS PERIOD   1
     8 TOTAL ITERATIONS
     1 CALLS TO GCG PACKAGE FOR TRANSPORT TIME STEP 119 IN FLOW TIME STEP   1 STRESS PERIOD   1
     9 TOTAL ITERATIONS
 
 SOLVING FOR HEAD 


     2 CALLS TO PCG ROUTINE FOR TIME STEP   1 IN STRESS PERIOD    1
    10 TOTAL ITERATIONS

 MAXIMUM HEAD CHANGE FOR EACH ITERATION (1 INDICATES THE FIRST INNER ITERATION):

    HEAD CHANGE    HEAD CHANGE    HEAD CHANGE    HEAD CHANGE    HEAD CHANGE 
   LAYER,ROW,COL  LAYER,ROW,COL  LAYER,ROW,COL  LAYER,ROW,COL  LAYER,ROW,COL
 ---------------------------------------------------------------------------
  1 -0.1367E-01  0 -0.9405E-02  0  0.4596E-02  0  0.9712E-02  0 -0.7713E-02
   ( 15,  1, 86)  ( 11,  1, 70)  (  8,  1, 12)  ( 11,  1, 69)  ( 11,  1, 67)
  0  0.4316E-02  0 -0.1164E-02  0  0.1577E-02  0 -0.9561E-03  1 -0.3369E-03
   ( 11,  1, 58)  ( 11,  1, 57)  ( 11,  1, 70)  ( 11,  1, 70)  ( 11,  1, 63)

 MAXIMUM RESIDUAL FOR EACH ITERATION (1 INDICATES THE FIRST INNER ITERATION):

    RESIDUAL       RESIDUAL       RESIDUAL       RESIDUAL       RESIDUAL    
   LAYER,ROW,COL  LAYER,ROW,COL  LAYER,ROW,COL  LAYER,ROW,COL  LAYER,ROW,COL
 ---------------------------------------------------------------------------
  1 -0.1350E+06  0  0.9570E+05  0  0.9504E+05  0  0.7938E+05  0  -6600.    
   ( 21,  1, 89)  ( 19,  1, 89)  ( 19,  1, 89)  ( 19,  1, 89)  ( 17,  1, 88)
  0  -3257.      0  -2522.      0  -1618.      0  -425.0      1  -370.2    
   ( 17,  1, 88)  ( 22,  1, 87)  ( 22,  1, 87)  ( 22,  1, 87)  ( 22,  1, 87)


 FLOW MODEL IS TRANSIENT
 FLOW MODEL CONTAINS CONSTANT-HEAD CELLS


 MAXIMUM STEPSIZE DURING WHICH ANY PARTICLE CANNOT MOVE MORE THAN ONE CELL
 =  13.19    (WHEN MIN. R.F.=1)  AT K=  17, I=   1, J=  90

 MAXIMUM STEPSIZE WHICH MEETS STABILITY CRITERION OF THE ADVECTION TERM
 (FOR PURE FINITE-DIFFERENCE OPTION, MIXELM=0) 
 =  7.986    (WHEN MIN. R.F.=1)  AT K=  16, I=   1, J=  90


 TOTAL NUMBER OF POINT SOURCES/SINKS PRESENT IN THE FLOW MODEL =    30

 MAXIMUM STEPSIZE WHICH MEETS STABILITY CRITERION OF THE SINK & SOURCE TERM
 =  12.14    (WHEN MIN. R.F.=1)  AT K=  17, I=   1, J=  91

 MAXIMUM STEPSIZE WHICH MEETS STABILITY CRITERION OF THE DISPERSION TERM
 =  4.372    (WHEN MIN. R.F.=1)  AT K=  17, I=   1, J=  90
     1 CALLS TO GCG PACKAGE FOR TRANSPORT TIME STEP 120 IN FLOW TIME STEP   1 STRESS PERIOD   1
     9 TOTAL ITERATIONS
  MAXIMUM CONCENTRATION CHANGES FOR EACH ITERATION:
  MAX. CHANGE LAYER,ROW,COL MAX. CHANGE LAYER,ROW,COL MAX. CHANGE LAYER,ROW,COL MAX. CHANGE LAYER,ROW,COL MAX. CHANGE LAYER,ROW,COL
 ------------------------------------------------------------------------------------------------------------------------------------
   0.4893E-01 ( 20,  1, 87)  0.3282E-02 ( 19,  1, 87)  0.2198E-02 ( 18,  1, 87)  0.2145E-03 ( 16,  1, 88)  0.1396E-03 ( 17,  1, 89)
   0.3005E-04 ( 16,  1, 90)  0.1438E-04 ( 21,  1, 78)  0.1866E-04 ( 21,  1, 78)  0.7732E-06 ( 16,  1, 89)
     1 CALLS TO GCG PACKAGE FOR TRANSPORT TIME STEP 120 IN FLOW TIME STEP   1 STRESS PERIOD   1
     9 TOTAL ITERATIONS
  MAXIMUM CONCENTRATION CHANGES FOR EACH ITERATION:
  MAX. CHANGE LAYER,ROW,COL MAX. CHANGE LAYER,ROW,COL MAX. CHANGE LAYER,ROW,COL MAX. CHANGE LAYER,ROW,COL MAX. CHANGE LAYER,ROW,COL
 ------------------------------------------------------------------------------------------------------------------------------------
   0.6033E-01 ( 19,  1, 88)  0.9015E-02 ( 20,  1, 87)  0.7811E-03 ( 23,  1, 88)  0.5255E-03 ( 23,  1, 88)  0.2647E-03 ( 17,  1, 90)
   0.4244E-04 ( 17,  1, 90)  0.6220E-05 ( 17,  1, 90)  0.1721E-05 ( 17,  1, 90)  0.1361E-06 ( 23,  1, 85)



 >>>>>>>>>>>>>>>>>>>>>>>>>>>>>>>>>>>>>>>>>>>>>>>>>>>>>>>FOR COMPONENT NO. 01<<<<<<<<<<<<<<<<<<<<<<<<<<<<<<<<<<<<<<<<<<<<<<<<<<<<<<<


                                            -------------------------------------------
                                                      TRANSPORT STEP NO.  120
                                            -------------------------------------------

 TOTAL ELAPSED TIME SINCE BEGINNING OF SIMULATION =   6000.000    D   
 .....................................................................

                     CUMMULATIVE MASS BUDGETS AT END OF TRANSPORT STEP  120, TIME STEP    1, STRESS PERIOD    1
                     ------------------------------------------------------------------------------------------

                                                             IN                           OUT
                                                      ----------------             ----------------
                               CONSTANT CONCENTRATION:    0.000000                    0.000000    
                                        CONSTANT HEAD:   0.2376560E+09              -0.2375081E+09
                                                WELLS:    0.000000                    0.000000    
                                             RECHARGE:    0.000000                    0.000000    
                               1ST/0TH ORDER REACTION:    0.000000                    0.000000    
                                MASS STORAGE (SOLUTE):   0.3332618E+08              -0.3347408E+08
                            ---------------------------------------------------------------------------
                                              [TOTAL]:   0.2709824E+09 KG           -0.2709825E+09 KG  

                                                          NET (IN - OUT):   -64.43639    
                                                   DISCREPANCY (PERCENT):  -0.2377880E-04



 >>>>>>>>>>>>>>>>>>>>>>>>>>>>>>>>>>>>>>>>>>>>>>>>>>>>>>>FOR COMPONENT NO. 02<<<<<<<<<<<<<<<<<<<<<<<<<<<<<<<<<<<<<<<<<<<<<<<<<<<<<<<


                                            -------------------------------------------
                                                      TRANSPORT STEP NO.  120
                                            -------------------------------------------

 TOTAL ELAPSED TIME SINCE BEGINNING OF SIMULATION =   6000.000    D   
 .....................................................................

                     CUMMULATIVE MASS BUDGETS AT END OF TRANSPORT STEP  120, TIME STEP    1, STRESS PERIOD    1
                     ------------------------------------------------------------------------------------------

                                                             IN                           OUT
                                                      ----------------             ----------------
                               CONSTANT CONCENTRATION:    0.000000                    0.000000    
                                        CONSTANT HEAD:    0.000000                  -0.1274474E+11
                                                WELLS:    0.000000                    0.000000    
                                             RECHARGE:    0.000000                    0.000000    
                               1ST/0TH ORDER REACTION:   0.9930000E+11                0.000000    
                                MASS STORAGE (SOLUTE):   0.2022945E+10              -0.8857821E+11
                            ---------------------------------------------------------------------------
                                              [TOTAL]:   0.1013230E+12 KG           -0.1013230E+12 KG  

                                                          NET (IN - OUT):    158.0668    
                                                   DISCREPANCY (PERCENT):   0.1560029E-06
 
 SOLVING FOR HEAD 


     2 CALLS TO PCG ROUTINE FOR TIME STEP   1 IN STRESS PERIOD    1
     8 TOTAL ITERATIONS

 MAXIMUM HEAD CHANGE FOR EACH ITERATION (1 INDICATES THE FIRST INNER ITERATION):

    HEAD CHANGE    HEAD CHANGE    HEAD CHANGE    HEAD CHANGE    HEAD CHANGE 
   LAYER,ROW,COL  LAYER,ROW,COL  LAYER,ROW,COL  LAYER,ROW,COL  LAYER,ROW,COL
 ---------------------------------------------------------------------------
  1  0.1343E-01  0 -0.3953E-02  0 -0.2591E-02  0 -0.5911E-02  0  0.7835E-02
   ( 15,  1, 86)  ( 17,  1, 89)  (  8,  1, 12)  ( 11,  1, 52)  ( 11,  1, 52)
  0 -0.2027E-02  0  0.5018E-03  1 -0.5342E-03
   ( 11,  1, 52)  (  7,  1, 37)  ( 11,  1, 62)

 MAXIMUM RESIDUAL FOR EACH ITERATION (1 INDICATES THE FIRST INNER ITERATION):

    RESIDUAL       RESIDUAL       RESIDUAL       RESIDUAL       RESIDUAL    
   LAYER,ROW,COL  LAYER,ROW,COL  LAYER,ROW,COL  LAYER,ROW,COL  LAYER,ROW,COL
 ---------------------------------------------------------------------------
  1  0.1347E+06  0 -0.9505E+05  0 -0.9385E+05  0 -0.1587E+05  0   4555.    
   ( 21,  1, 89)  ( 19,  1, 89)  ( 19,  1, 89)  ( 19,  1, 89)  ( 17,  1, 88)
  0   2788.      0   2305.      1   2017.    
   ( 22,  1, 87)  ( 22,  1, 87)  ( 22,  1, 87)


 FLOW MODEL IS TRANSIENT
 FLOW MODEL CONTAINS CONSTANT-HEAD CELLS


 MAXIMUM STEPSIZE DURING WHICH ANY PARTICLE CANNOT MOVE MORE THAN ONE CELL
 =  12.80    (WHEN MIN. R.F.=1)  AT K=  17, I=   1, J=  90

 MAXIMUM STEPSIZE WHICH MEETS STABILITY CRITERION OF THE ADVECTION TERM
 (FOR PURE FINITE-DIFFERENCE OPTION, MIXELM=0) 
 =  8.013    (WHEN MIN. R.F.=1)  AT K=  16, I=   1, J=  90


 TOTAL NUMBER OF POINT SOURCES/SINKS PRESENT IN THE FLOW MODEL =    30

 MAXIMUM STEPSIZE WHICH MEETS STABILITY CRITERION OF THE SINK & SOURCE TERM
 =  12.17    (WHEN MIN. R.F.=1)  AT K=  17, I=   1, J=  91

 MAXIMUM STEPSIZE WHICH MEETS STABILITY CRITERION OF THE DISPERSION TERM
 =  4.011    (WHEN MIN. R.F.=1)  AT K=  17, I=   1, J=  90
     1 CALLS TO GCG PACKAGE FOR TRANSPORT TIME STEP 121 IN FLOW TIME STEP   1 STRESS PERIOD   1
     8 TOTAL ITERATIONS
     1 CALLS TO GCG PACKAGE FOR TRANSPORT TIME STEP 121 IN FLOW TIME STEP   1 STRESS PERIOD   1
     9 TOTAL ITERATIONS
 
 SOLVING FOR HEAD 


     2 CALLS TO PCG ROUTINE FOR TIME STEP   1 IN STRESS PERIOD    1
     9 TOTAL ITERATIONS

 MAXIMUM HEAD CHANGE FOR EACH ITERATION (1 INDICATES THE FIRST INNER ITERATION):

    HEAD CHANGE    HEAD CHANGE    HEAD CHANGE    HEAD CHANGE    HEAD CHANGE 
   LAYER,ROW,COL  LAYER,ROW,COL  LAYER,ROW,COL  LAYER,ROW,COL  LAYER,ROW,COL
 ---------------------------------------------------------------------------
  1 -0.1360E-01  0 -0.5118E-02  0  0.3419E-02  0  0.8933E-02  0 -0.7779E-02
   ( 15,  1, 86)  (  6,  1, 38)  (  7,  1, 12)  (  8,  1, 51)  (  9,  1, 50)
  0  0.2800E-02  0  0.1140E-02  0  0.7056E-03  1 -0.5237E-03
   ( 11,  1, 68)  ( 11,  1, 60)  ( 11,  1, 70)  ( 11,  1, 64)

 MAXIMUM RESIDUAL FOR EACH ITERATION (1 INDICATES THE FIRST INNER ITERATION):

    RESIDUAL       RESIDUAL       RESIDUAL       RESIDUAL       RESIDUAL    
   LAYER,ROW,COL  LAYER,ROW,COL  LAYER,ROW,COL  LAYER,ROW,COL  LAYER,ROW,COL
 ---------------------------------------------------------------------------
  1 -0.1347E+06  0  0.9522E+05  0  0.9432E+05  0  0.6494E+05  0   6177.    
   ( 21,  1, 89)  ( 19,  1, 89)  ( 19,  1, 89)  ( 19,  1, 89)  ( 17,  1, 87)
  0  -2750.      0  -2537.      0  -847.1      1  -742.6    
   ( 17,  1, 88)  ( 22,  1, 87)  ( 22,  1, 87)  ( 22,  1, 87)


 FLOW MODEL IS TRANSIENT
 FLOW MODEL CONTAINS CONSTANT-HEAD CELLS


 MAXIMUM STEPSIZE DURING WHICH ANY PARTICLE CANNOT MOVE MORE THAN ONE CELL
 =  13.14    (WHEN MIN. R.F.=1)  AT K=  17, I=   1, J=  90

 MAXIMUM STEPSIZE WHICH MEETS STABILITY CRITERION OF THE ADVECTION TERM
 (FOR PURE FINITE-DIFFERENCE OPTION, MIXELM=0) 
 =  7.968    (WHEN MIN. R.F.=1)  AT K=  16, I=   1, J=  90


 TOTAL NUMBER OF POINT SOURCES/SINKS PRESENT IN THE FLOW MODEL =    30

 MAXIMUM STEPSIZE WHICH MEETS STABILITY CRITERION OF THE SINK & SOURCE TERM
 =  12.08    (WHEN MIN. R.F.=1)  AT K=  17, I=   1, J=  91

 MAXIMUM STEPSIZE WHICH MEETS STABILITY CRITERION OF THE DISPERSION TERM
 =  4.342    (WHEN MIN. R.F.=1)  AT K=  17, I=   1, J=  90
     1 CALLS TO GCG PACKAGE FOR TRANSPORT TIME STEP 122 IN FLOW TIME STEP   1 STRESS PERIOD   1
    10 TOTAL ITERATIONS
     1 CALLS TO GCG PACKAGE FOR TRANSPORT TIME STEP 122 IN FLOW TIME STEP   1 STRESS PERIOD   1
     9 TOTAL ITERATIONS
 
 SOLVING FOR HEAD 


     2 CALLS TO PCG ROUTINE FOR TIME STEP   1 IN STRESS PERIOD    1
     9 TOTAL ITERATIONS

 MAXIMUM HEAD CHANGE FOR EACH ITERATION (1 INDICATES THE FIRST INNER ITERATION):

    HEAD CHANGE    HEAD CHANGE    HEAD CHANGE    HEAD CHANGE    HEAD CHANGE 
   LAYER,ROW,COL  LAYER,ROW,COL  LAYER,ROW,COL  LAYER,ROW,COL  LAYER,ROW,COL
 ---------------------------------------------------------------------------
  1  0.1367E-01  0 -0.4080E-02  0 -0.3519E-02  0 -0.1091E-01  0  0.1186E-01
   ( 15,  1, 86)  ( 17,  1, 89)  (  8,  1, 12)  ( 11,  1, 54)  ( 11,  1, 54)
  0 -0.1730E-02  0 -0.1130E-02  0 -0.6899E-03  1  0.4872E-03
   ( 11,  1, 54)  ( 11,  1, 70)  ( 11,  1, 63)  ( 11,  1, 70)

 MAXIMUM RESIDUAL FOR EACH ITERATION (1 INDICATES THE FIRST INNER ITERATION):

    RESIDUAL       RESIDUAL       RESIDUAL       RESIDUAL       RESIDUAL    
   LAYER,ROW,COL  LAYER,ROW,COL  LAYER,ROW,COL  LAYER,ROW,COL  LAYER,ROW,COL
 ---------------------------------------------------------------------------
  1  0.1332E+06  0 -0.9399E+05  0 -0.9315E+05  0 -0.2698E+05  0  -5256.    
   ( 21,  1, 89)  ( 19,  1, 89)  ( 19,  1, 89)  ( 19,  1, 89)  ( 17,  1, 87)
  0   2790.      0   2120.      0   679.0      1   574.0    
   ( 22,  1, 87)  ( 22,  1, 87)  ( 22,  1, 87)  ( 22,  1, 87)


 FLOW MODEL IS TRANSIENT
 FLOW MODEL CONTAINS CONSTANT-HEAD CELLS


 MAXIMUM STEPSIZE DURING WHICH ANY PARTICLE CANNOT MOVE MORE THAN ONE CELL
 =  12.83    (WHEN MIN. R.F.=1)  AT K=  17, I=   1, J=  90

 MAXIMUM STEPSIZE WHICH MEETS STABILITY CRITERION OF THE ADVECTION TERM
 (FOR PURE FINITE-DIFFERENCE OPTION, MIXELM=0) 
 =  8.022    (WHEN MIN. R.F.=1)  AT K=  16, I=   1, J=  90


 TOTAL NUMBER OF POINT SOURCES/SINKS PRESENT IN THE FLOW MODEL =    30

 MAXIMUM STEPSIZE WHICH MEETS STABILITY CRITERION OF THE SINK & SOURCE TERM
 =  12.17    (WHEN MIN. R.F.=1)  AT K=  17, I=   1, J=  91

 MAXIMUM STEPSIZE WHICH MEETS STABILITY CRITERION OF THE DISPERSION TERM
 =  4.021    (WHEN MIN. R.F.=1)  AT K=  17, I=   1, J=  90
     1 CALLS TO GCG PACKAGE FOR TRANSPORT TIME STEP 123 IN FLOW TIME STEP   1 STRESS PERIOD   1
     8 TOTAL ITERATIONS
     1 CALLS TO GCG PACKAGE FOR TRANSPORT TIME STEP 123 IN FLOW TIME STEP   1 STRESS PERIOD   1
     9 TOTAL ITERATIONS
 
 SOLVING FOR HEAD 


     2 CALLS TO PCG ROUTINE FOR TIME STEP   1 IN STRESS PERIOD    1
     8 TOTAL ITERATIONS

 MAXIMUM HEAD CHANGE FOR EACH ITERATION (1 INDICATES THE FIRST INNER ITERATION):

    HEAD CHANGE    HEAD CHANGE    HEAD CHANGE    HEAD CHANGE    HEAD CHANGE 
   LAYER,ROW,COL  LAYER,ROW,COL  LAYER,ROW,COL  LAYER,ROW,COL  LAYER,ROW,COL
 ---------------------------------------------------------------------------
  1 -0.1331E-01  0  0.3634E-02  0  0.2795E-02  0 -0.8058E-02  0  0.7833E-02
   ( 15,  1, 86)  ( 17,  1, 89)  (  8,  1, 12)  (  7,  1, 38)  (  7,  1, 39)
  0 -0.2146E-02  0  0.7557E-03  1  0.6616E-03
   ( 11,  1, 67)  ( 11,  1, 67)  ( 11,  1, 45)

 MAXIMUM RESIDUAL FOR EACH ITERATION (1 INDICATES THE FIRST INNER ITERATION):

    RESIDUAL       RESIDUAL       RESIDUAL       RESIDUAL       RESIDUAL    
   LAYER,ROW,COL  LAYER,ROW,COL  LAYER,ROW,COL  LAYER,ROW,COL  LAYER,ROW,COL
 ---------------------------------------------------------------------------
  1 -0.1311E+06  0  0.9212E+05  0  0.8844E+05  0  0.2981E+05  0   6078.    
   ( 21,  1, 89)  ( 19,  1, 89)  ( 19,  1, 89)  ( 19,  1, 89)  ( 17,  1, 87)
  0  -2818.      0  -2556.      1  -1905.    
   ( 22,  1, 87)  ( 22,  1, 87)  ( 22,  1, 87)


 FLOW MODEL IS TRANSIENT
 FLOW MODEL CONTAINS CONSTANT-HEAD CELLS


 MAXIMUM STEPSIZE DURING WHICH ANY PARTICLE CANNOT MOVE MORE THAN ONE CELL
 =  13.22    (WHEN MIN. R.F.=1)  AT K=  17, I=   1, J=  90

 MAXIMUM STEPSIZE WHICH MEETS STABILITY CRITERION OF THE ADVECTION TERM
 (FOR PURE FINITE-DIFFERENCE OPTION, MIXELM=0) 
 =  8.003    (WHEN MIN. R.F.=1)  AT K=  16, I=   1, J=  90


 TOTAL NUMBER OF POINT SOURCES/SINKS PRESENT IN THE FLOW MODEL =    30

 MAXIMUM STEPSIZE WHICH MEETS STABILITY CRITERION OF THE SINK & SOURCE TERM
 =  12.17    (WHEN MIN. R.F.=1)  AT K=  17, I=   1, J=  91

 MAXIMUM STEPSIZE WHICH MEETS STABILITY CRITERION OF THE DISPERSION TERM
 =  4.372    (WHEN MIN. R.F.=1)  AT K=  17, I=   1, J=  90
     1 CALLS TO GCG PACKAGE FOR TRANSPORT TIME STEP 124 IN FLOW TIME STEP   1 STRESS PERIOD   1
    10 TOTAL ITERATIONS
     1 CALLS TO GCG PACKAGE FOR TRANSPORT TIME STEP 124 IN FLOW TIME STEP   1 STRESS PERIOD   1
     9 TOTAL ITERATIONS
 
 SOLVING FOR HEAD 


     2 CALLS TO PCG ROUTINE FOR TIME STEP   1 IN STRESS PERIOD    1
     8 TOTAL ITERATIONS

 MAXIMUM HEAD CHANGE FOR EACH ITERATION (1 INDICATES THE FIRST INNER ITERATION):

    HEAD CHANGE    HEAD CHANGE    HEAD CHANGE    HEAD CHANGE    HEAD CHANGE 
   LAYER,ROW,COL  LAYER,ROW,COL  LAYER,ROW,COL  LAYER,ROW,COL  LAYER,ROW,COL
 ---------------------------------------------------------------------------
  1  0.1374E-01  0  0.7342E-02  0 -0.4096E-02  0 -0.1099E-01  0  0.8606E-02
   ( 15,  1, 86)  ( 11,  1, 49)  (  8,  1, 12)  ( 11,  1, 49)  ( 11,  1, 49)
  0  0.3016E-02  0 -0.7489E-03  1 -0.6973E-03
   (  7,  1, 37)  (  7,  1, 37)  ( 11,  1, 60)

 MAXIMUM RESIDUAL FOR EACH ITERATION (1 INDICATES THE FIRST INNER ITERATION):

    RESIDUAL       RESIDUAL       RESIDUAL       RESIDUAL       RESIDUAL    
   LAYER,ROW,COL  LAYER,ROW,COL  LAYER,ROW,COL  LAYER,ROW,COL  LAYER,ROW,COL
 ---------------------------------------------------------------------------
  1  0.1343E+06  0 -0.9416E+05  0 -0.9341E+05  0 -0.7197E+05  0  -6288.    
   ( 21,  1, 89)  ( 19,  1, 89)  ( 19,  1, 89)  ( 19,  1, 89)  ( 17,  1, 87)
  0   3150.      0   2628.      1   1607.    
   ( 17,  1, 88)  ( 22,  1, 87)  ( 22,  1, 87)


 FLOW MODEL IS TRANSIENT
 FLOW MODEL CONTAINS CONSTANT-HEAD CELLS


 MAXIMUM STEPSIZE DURING WHICH ANY PARTICLE CANNOT MOVE MORE THAN ONE CELL
 =  12.91    (WHEN MIN. R.F.=1)  AT K=  17, I=   1, J=  90

 MAXIMUM STEPSIZE WHICH MEETS STABILITY CRITERION OF THE ADVECTION TERM
 (FOR PURE FINITE-DIFFERENCE OPTION, MIXELM=0) 
 =  8.055    (WHEN MIN. R.F.=1)  AT K=  16, I=   1, J=  90


 TOTAL NUMBER OF POINT SOURCES/SINKS PRESENT IN THE FLOW MODEL =    30

 MAXIMUM STEPSIZE WHICH MEETS STABILITY CRITERION OF THE SINK & SOURCE TERM
 =  12.29    (WHEN MIN. R.F.=1)  AT K=  17, I=   1, J=  91

 MAXIMUM STEPSIZE WHICH MEETS STABILITY CRITERION OF THE DISPERSION TERM
 =  4.054    (WHEN MIN. R.F.=1)  AT K=  17, I=   1, J=  90
     1 CALLS TO GCG PACKAGE FOR TRANSPORT TIME STEP 125 IN FLOW TIME STEP   1 STRESS PERIOD   1
     8 TOTAL ITERATIONS
  MAXIMUM CONCENTRATION CHANGES FOR EACH ITERATION:
  MAX. CHANGE LAYER,ROW,COL MAX. CHANGE LAYER,ROW,COL MAX. CHANGE LAYER,ROW,COL MAX. CHANGE LAYER,ROW,COL MAX. CHANGE LAYER,ROW,COL
 ------------------------------------------------------------------------------------------------------------------------------------
   0.5159E-01 ( 20,  1, 87)  0.4225E-02 ( 19,  1, 89)  0.2101E-02 ( 17,  1, 86)  0.5156E-03 ( 20,  1, 89)  0.9544E-04 ( 16,  1, 89)
   0.2011E-04 ( 20,  1, 89)  0.2147E-04 ( 16,  1, 90)  0.6527E-06 ( 17,  1, 90)
     1 CALLS TO GCG PACKAGE FOR TRANSPORT TIME STEP 125 IN FLOW TIME STEP   1 STRESS PERIOD   1
     9 TOTAL ITERATIONS
  MAXIMUM CONCENTRATION CHANGES FOR EACH ITERATION:
  MAX. CHANGE LAYER,ROW,COL MAX. CHANGE LAYER,ROW,COL MAX. CHANGE LAYER,ROW,COL MAX. CHANGE LAYER,ROW,COL MAX. CHANGE LAYER,ROW,COL
 ------------------------------------------------------------------------------------------------------------------------------------
   0.6410E-01 ( 20,  1, 87)  0.7850E-02 ( 20,  1, 87)  0.6725E-03 ( 19,  1, 89)  0.8927E-03 ( 17,  1, 90)  0.5350E-04 ( 16,  1, 89)
   0.1598E-03 ( 16,  1, 89)  0.1331E-03 ( 16,  1, 89)  0.1523E-05 ( 23,  1, 87)  0.2537E-06 ( 23,  1, 85)
 
 SOLVING FOR HEAD 


     2 CALLS TO PCG ROUTINE FOR TIME STEP   1 IN STRESS PERIOD    1
     9 TOTAL ITERATIONS

 MAXIMUM HEAD CHANGE FOR EACH ITERATION (1 INDICATES THE FIRST INNER ITERATION):

    HEAD CHANGE    HEAD CHANGE    HEAD CHANGE    HEAD CHANGE    HEAD CHANGE 
   LAYER,ROW,COL  LAYER,ROW,COL  LAYER,ROW,COL  LAYER,ROW,COL  LAYER,ROW,COL
 ---------------------------------------------------------------------------
  1 -0.1363E-01  0 -0.7304E-02  0  0.4417E-02  0 -0.1023E-01  0  0.7685E-02
   ( 15,  1, 86)  ( 11,  1, 60)  (  8,  1, 12)  ( 11,  1, 52)  (  9,  1, 43)
  0 -0.5063E-02  0 -0.1400E-02  0  0.8147E-03  1  0.7600E-03
   ( 11,  1, 60)  ( 11,  1, 51)  ( 11,  1, 70)  ( 11,  1, 65)

 MAXIMUM RESIDUAL FOR EACH ITERATION (1 INDICATES THE FIRST INNER ITERATION):

    RESIDUAL       RESIDUAL       RESIDUAL       RESIDUAL       RESIDUAL    
   LAYER,ROW,COL  LAYER,ROW,COL  LAYER,ROW,COL  LAYER,ROW,COL  LAYER,ROW,COL
 ---------------------------------------------------------------------------
  1 -0.1384E+06  0  0.9874E+05  0  0.9797E+05  0  0.7665E+05  0   6538.    
   ( 21,  1, 89)  ( 19,  1, 89)  ( 19,  1, 89)  ( 19,  1, 89)  ( 17,  1, 87)
  0  -3278.      0  -2553.      0  -1855.      1  -1614.    
   ( 17,  1, 88)  ( 22,  1, 87)  ( 22,  1, 87)  ( 22,  1, 87)


 FLOW MODEL IS TRANSIENT
 FLOW MODEL CONTAINS CONSTANT-HEAD CELLS


 MAXIMUM STEPSIZE DURING WHICH ANY PARTICLE CANNOT MOVE MORE THAN ONE CELL
 =  13.20    (WHEN MIN. R.F.=1)  AT K=  17, I=   1, J=  90

 MAXIMUM STEPSIZE WHICH MEETS STABILITY CRITERION OF THE ADVECTION TERM
 (FOR PURE FINITE-DIFFERENCE OPTION, MIXELM=0) 
 =  7.991    (WHEN MIN. R.F.=1)  AT K=  16, I=   1, J=  90


 TOTAL NUMBER OF POINT SOURCES/SINKS PRESENT IN THE FLOW MODEL =    30

 MAXIMUM STEPSIZE WHICH MEETS STABILITY CRITERION OF THE SINK & SOURCE TERM
 =  12.17    (WHEN MIN. R.F.=1)  AT K=  17, I=   1, J=  91

 MAXIMUM STEPSIZE WHICH MEETS STABILITY CRITERION OF THE DISPERSION TERM
 =  4.364    (WHEN MIN. R.F.=1)  AT K=  17, I=   1, J=  90
     1 CALLS TO GCG PACKAGE FOR TRANSPORT TIME STEP 126 IN FLOW TIME STEP   1 STRESS PERIOD   1
     9 TOTAL ITERATIONS
     1 CALLS TO GCG PACKAGE FOR TRANSPORT TIME STEP 126 IN FLOW TIME STEP   1 STRESS PERIOD   1
     9 TOTAL ITERATIONS
 
 SOLVING FOR HEAD 


     2 CALLS TO PCG ROUTINE FOR TIME STEP   1 IN STRESS PERIOD    1
     9 TOTAL ITERATIONS

 MAXIMUM HEAD CHANGE FOR EACH ITERATION (1 INDICATES THE FIRST INNER ITERATION):

    HEAD CHANGE    HEAD CHANGE    HEAD CHANGE    HEAD CHANGE    HEAD CHANGE 
   LAYER,ROW,COL  LAYER,ROW,COL  LAYER,ROW,COL  LAYER,ROW,COL  LAYER,ROW,COL
 ---------------------------------------------------------------------------
  1  0.1370E-01  0 -0.4138E-02  0 -0.4369E-02  0  0.1260E-01  0  0.1120E-01
   ( 15,  1, 86)  ( 17,  1, 89)  (  8,  1, 12)  ( 11,  1, 49)  ( 11,  1, 66)
  0 -0.2428E-02  0  0.1003E-02  0 -0.9738E-03  1  0.8344E-03
   ( 11,  1, 70)  ( 11,  1, 59)  ( 11,  1, 54)  ( 11,  1, 54)

 MAXIMUM RESIDUAL FOR EACH ITERATION (1 INDICATES THE FIRST INNER ITERATION):

    RESIDUAL       RESIDUAL       RESIDUAL       RESIDUAL       RESIDUAL    
   LAYER,ROW,COL  LAYER,ROW,COL  LAYER,ROW,COL  LAYER,ROW,COL  LAYER,ROW,COL
 ---------------------------------------------------------------------------
  1  0.1369E+06  0 -0.9778E+05  0 -0.9706E+05  0 -0.3909E+05  0   5659.    
   ( 21,  1, 89)  ( 19,  1, 89)  ( 19,  1, 89)  ( 19,  1, 89)  ( 17,  1, 88)
  0   2732.      0   2532.      0   1268.      1   1123.    
   ( 22,  1, 87)  ( 22,  1, 87)  ( 22,  1, 87)  ( 22,  1, 87)


 FLOW MODEL IS TRANSIENT
 FLOW MODEL CONTAINS CONSTANT-HEAD CELLS


 MAXIMUM STEPSIZE DURING WHICH ANY PARTICLE CANNOT MOVE MORE THAN ONE CELL
 =  12.85    (WHEN MIN. R.F.=1)  AT K=  17, I=   1, J=  90

 MAXIMUM STEPSIZE WHICH MEETS STABILITY CRITERION OF THE ADVECTION TERM
 (FOR PURE FINITE-DIFFERENCE OPTION, MIXELM=0) 
 =  8.036    (WHEN MIN. R.F.=1)  AT K=  16, I=   1, J=  90


 TOTAL NUMBER OF POINT SOURCES/SINKS PRESENT IN THE FLOW MODEL =    30

 MAXIMUM STEPSIZE WHICH MEETS STABILITY CRITERION OF THE SINK & SOURCE TERM
 =  12.22    (WHEN MIN. R.F.=1)  AT K=  17, I=   1, J=  91

 MAXIMUM STEPSIZE WHICH MEETS STABILITY CRITERION OF THE DISPERSION TERM
 =  4.023    (WHEN MIN. R.F.=1)  AT K=  17, I=   1, J=  90
     1 CALLS TO GCG PACKAGE FOR TRANSPORT TIME STEP 127 IN FLOW TIME STEP   1 STRESS PERIOD   1
     8 TOTAL ITERATIONS
     1 CALLS TO GCG PACKAGE FOR TRANSPORT TIME STEP 127 IN FLOW TIME STEP   1 STRESS PERIOD   1
     9 TOTAL ITERATIONS
 
 SOLVING FOR HEAD 


     2 CALLS TO PCG ROUTINE FOR TIME STEP   1 IN STRESS PERIOD    1
     9 TOTAL ITERATIONS

 MAXIMUM HEAD CHANGE FOR EACH ITERATION (1 INDICATES THE FIRST INNER ITERATION):

    HEAD CHANGE    HEAD CHANGE    HEAD CHANGE    HEAD CHANGE    HEAD CHANGE 
   LAYER,ROW,COL  LAYER,ROW,COL  LAYER,ROW,COL  LAYER,ROW,COL  LAYER,ROW,COL
 ---------------------------------------------------------------------------
  1 -0.1358E-01  0  0.4047E-02  0  0.3917E-02  0 -0.9420E-02  0  0.8567E-02
   ( 15,  1, 86)  ( 17,  1, 89)  (  8,  1, 12)  ( 11,  1, 54)  ( 11,  1, 54)
  0 -0.1626E-02  0 -0.1048E-02  0  0.7695E-03  1 -0.6017E-03
   (  7,  1, 44)  ( 11,  1, 53)  ( 11,  1, 49)  ( 11,  1, 70)

 MAXIMUM RESIDUAL FOR EACH ITERATION (1 INDICATES THE FIRST INNER ITERATION):

    RESIDUAL       RESIDUAL       RESIDUAL       RESIDUAL       RESIDUAL    
   LAYER,ROW,COL  LAYER,ROW,COL  LAYER,ROW,COL  LAYER,ROW,COL  LAYER,ROW,COL
 ---------------------------------------------------------------------------
  1 -0.1339E+06  0  0.9430E+05  0  0.9353E+05  0  0.2459E+05  0   5510.    
   ( 21,  1, 89)  ( 19,  1, 89)  ( 19,  1, 89)  ( 19,  1, 89)  ( 17,  1, 87)
  0  -2853.      0  -2552.      0  -953.3      1  -833.4    
   ( 22,  1, 87)  ( 22,  1, 87)  ( 22,  1, 87)  ( 22,  1, 87)


 FLOW MODEL IS TRANSIENT
 FLOW MODEL CONTAINS CONSTANT-HEAD CELLS


 MAXIMUM STEPSIZE DURING WHICH ANY PARTICLE CANNOT MOVE MORE THAN ONE CELL
 =  13.22    (WHEN MIN. R.F.=1)  AT K=  17, I=   1, J=  90

 MAXIMUM STEPSIZE WHICH MEETS STABILITY CRITERION OF THE ADVECTION TERM
 (FOR PURE FINITE-DIFFERENCE OPTION, MIXELM=0) 
 =  8.000    (WHEN MIN. R.F.=1)  AT K=  16, I=   1, J=  90


 TOTAL NUMBER OF POINT SOURCES/SINKS PRESENT IN THE FLOW MODEL =    30

 MAXIMUM STEPSIZE WHICH MEETS STABILITY CRITERION OF THE SINK & SOURCE TERM
 =  12.17    (WHEN MIN. R.F.=1)  AT K=  17, I=   1, J=  91

 MAXIMUM STEPSIZE WHICH MEETS STABILITY CRITERION OF THE DISPERSION TERM
 =  4.376    (WHEN MIN. R.F.=1)  AT K=  17, I=   1, J=  90
     1 CALLS TO GCG PACKAGE FOR TRANSPORT TIME STEP 128 IN FLOW TIME STEP   1 STRESS PERIOD   1
     9 TOTAL ITERATIONS
     1 CALLS TO GCG PACKAGE FOR TRANSPORT TIME STEP 128 IN FLOW TIME STEP   1 STRESS PERIOD   1
     9 TOTAL ITERATIONS
 
 SOLVING FOR HEAD 


     2 CALLS TO PCG ROUTINE FOR TIME STEP   1 IN STRESS PERIOD    1
     8 TOTAL ITERATIONS

 MAXIMUM HEAD CHANGE FOR EACH ITERATION (1 INDICATES THE FIRST INNER ITERATION):

    HEAD CHANGE    HEAD CHANGE    HEAD CHANGE    HEAD CHANGE    HEAD CHANGE 
   LAYER,ROW,COL  LAYER,ROW,COL  LAYER,ROW,COL  LAYER,ROW,COL  LAYER,ROW,COL
 ---------------------------------------------------------------------------
  1  0.1343E-01  0 -0.3895E-02  0 -0.2462E-02  0  0.1072E-01  0 -0.1028E-01
   ( 15,  1, 86)  ( 17,  1, 89)  (  8,  1, 12)  ( 11,  1, 49)  ( 11,  1, 49)
  0  0.1785E-02  0 -0.7816E-03  1 -0.6098E-03
   ( 11,  1, 53)  ( 11,  1, 65)  ( 11,  1, 59)

 MAXIMUM RESIDUAL FOR EACH ITERATION (1 INDICATES THE FIRST INNER ITERATION):

    RESIDUAL       RESIDUAL       RESIDUAL       RESIDUAL       RESIDUAL    
   LAYER,ROW,COL  LAYER,ROW,COL  LAYER,ROW,COL  LAYER,ROW,COL  LAYER,ROW,COL
 ---------------------------------------------------------------------------
  1  0.1348E+06  0 -0.9525E+05  0 -0.9389E+05  0 -0.2740E+05  0  -5637.    
   ( 21,  1, 89)  ( 19,  1, 89)  ( 19,  1, 89)  ( 19,  1, 89)  ( 17,  1, 87)
  0   2822.      0   2554.      1   1985.    
   ( 22,  1, 87)  ( 22,  1, 87)  ( 22,  1, 87)


 FLOW MODEL IS TRANSIENT
 FLOW MODEL CONTAINS CONSTANT-HEAD CELLS


 MAXIMUM STEPSIZE DURING WHICH ANY PARTICLE CANNOT MOVE MORE THAN ONE CELL
 =  12.84    (WHEN MIN. R.F.=1)  AT K=  17, I=   1, J=  90

 MAXIMUM STEPSIZE WHICH MEETS STABILITY CRITERION OF THE ADVECTION TERM
 (FOR PURE FINITE-DIFFERENCE OPTION, MIXELM=0) 
 =  8.029    (WHEN MIN. R.F.=1)  AT K=  16, I=   1, J=  90


 TOTAL NUMBER OF POINT SOURCES/SINKS PRESENT IN THE FLOW MODEL =    30

 MAXIMUM STEPSIZE WHICH MEETS STABILITY CRITERION OF THE SINK & SOURCE TERM
 =  12.20    (WHEN MIN. R.F.=1)  AT K=  17, I=   1, J=  91

 MAXIMUM STEPSIZE WHICH MEETS STABILITY CRITERION OF THE DISPERSION TERM
 =  4.024    (WHEN MIN. R.F.=1)  AT K=  17, I=   1, J=  90
     1 CALLS TO GCG PACKAGE FOR TRANSPORT TIME STEP 129 IN FLOW TIME STEP   1 STRESS PERIOD   1
     8 TOTAL ITERATIONS
     1 CALLS TO GCG PACKAGE FOR TRANSPORT TIME STEP 129 IN FLOW TIME STEP   1 STRESS PERIOD   1
     9 TOTAL ITERATIONS
 
 SOLVING FOR HEAD 


     2 CALLS TO PCG ROUTINE FOR TIME STEP   1 IN STRESS PERIOD    1
     9 TOTAL ITERATIONS

 MAXIMUM HEAD CHANGE FOR EACH ITERATION (1 INDICATES THE FIRST INNER ITERATION):

    HEAD CHANGE    HEAD CHANGE    HEAD CHANGE    HEAD CHANGE    HEAD CHANGE 
   LAYER,ROW,COL  LAYER,ROW,COL  LAYER,ROW,COL  LAYER,ROW,COL  LAYER,ROW,COL
 ---------------------------------------------------------------------------
  1 -0.1378E-01  0 -0.9277E-02  0  0.5509E-02  0  0.9769E-02  0 -0.6683E-02
   ( 15,  1, 86)  (  7,  1, 42)  (  7,  1, 12)  (  7,  1, 43)  (  7,  1, 45)
  0 -0.4512E-02  0  0.1389E-02  0 -0.8387E-03  1  0.8346E-03
   ( 11,  1, 49)  ( 11,  1, 49)  ( 11,  1, 53)  ( 11,  1, 54)

 MAXIMUM RESIDUAL FOR EACH ITERATION (1 INDICATES THE FIRST INNER ITERATION):

    RESIDUAL       RESIDUAL       RESIDUAL       RESIDUAL       RESIDUAL    
   LAYER,ROW,COL  LAYER,ROW,COL  LAYER,ROW,COL  LAYER,ROW,COL  LAYER,ROW,COL
 ---------------------------------------------------------------------------
  1 -0.1366E+06  0  0.9600E+05  0  0.9553E+05  0  0.7794E+05  0   6535.    
   ( 21,  1, 89)  ( 19,  1, 89)  ( 19,  1, 89)  ( 19,  1, 89)  ( 17,  1, 87)
  0  -3195.      0  -2588.      0  -1815.      1  -1577.    
   ( 17,  1, 88)  ( 22,  1, 87)  ( 22,  1, 87)  ( 22,  1, 87)


 FLOW MODEL IS TRANSIENT
 FLOW MODEL CONTAINS CONSTANT-HEAD CELLS


 MAXIMUM STEPSIZE DURING WHICH ANY PARTICLE CANNOT MOVE MORE THAN ONE CELL
 =  13.17    (WHEN MIN. R.F.=1)  AT K=  17, I=   1, J=  90

 MAXIMUM STEPSIZE WHICH MEETS STABILITY CRITERION OF THE ADVECTION TERM
 (FOR PURE FINITE-DIFFERENCE OPTION, MIXELM=0) 
 =  7.979    (WHEN MIN. R.F.=1)  AT K=  16, I=   1, J=  90


 TOTAL NUMBER OF POINT SOURCES/SINKS PRESENT IN THE FLOW MODEL =    30

 MAXIMUM STEPSIZE WHICH MEETS STABILITY CRITERION OF THE SINK & SOURCE TERM
 =  12.10    (WHEN MIN. R.F.=1)  AT K=  17, I=   1, J=  91

 MAXIMUM STEPSIZE WHICH MEETS STABILITY CRITERION OF THE DISPERSION TERM
 =  4.350    (WHEN MIN. R.F.=1)  AT K=  17, I=   1, J=  90
     1 CALLS TO GCG PACKAGE FOR TRANSPORT TIME STEP 130 IN FLOW TIME STEP   1 STRESS PERIOD   1
     8 TOTAL ITERATIONS
  MAXIMUM CONCENTRATION CHANGES FOR EACH ITERATION:
  MAX. CHANGE LAYER,ROW,COL MAX. CHANGE LAYER,ROW,COL MAX. CHANGE LAYER,ROW,COL MAX. CHANGE LAYER,ROW,COL MAX. CHANGE LAYER,ROW,COL
 ------------------------------------------------------------------------------------------------------------------------------------
   0.4877E-01 ( 20,  1, 87)  0.3303E-02 ( 19,  1, 87)  0.2185E-02 ( 18,  1, 87)  0.2162E-03 ( 16,  1, 88)  0.1463E-03 ( 16,  1, 89)
   0.2769E-04 ( 16,  1, 90)  0.3471E-05 ( 21,  1, 78)  0.2682E-06 ( 16,  1, 89)
     1 CALLS TO GCG PACKAGE FOR TRANSPORT TIME STEP 130 IN FLOW TIME STEP   1 STRESS PERIOD   1
     9 TOTAL ITERATIONS
  MAXIMUM CONCENTRATION CHANGES FOR EACH ITERATION:
  MAX. CHANGE LAYER,ROW,COL MAX. CHANGE LAYER,ROW,COL MAX. CHANGE LAYER,ROW,COL MAX. CHANGE LAYER,ROW,COL MAX. CHANGE LAYER,ROW,COL
 ------------------------------------------------------------------------------------------------------------------------------------
   0.6008E-01 ( 19,  1, 88)  0.8692E-02 ( 19,  1, 87)  0.6930E-04 ( 18,  1, 87)  0.1496E-02 ( 18,  1, 87)  0.1733E-03 ( 17,  1, 90)
   0.4123E-04 ( 17,  1, 90)  0.6853E-05 ( 17,  1, 90)  0.1687E-05 ( 17,  1, 90)  0.1453E-06 ( 23,  1, 85)



 >>>>>>>>>>>>>>>>>>>>>>>>>>>>>>>>>>>>>>>>>>>>>>>>>>>>>>>FOR COMPONENT NO. 01<<<<<<<<<<<<<<<<<<<<<<<<<<<<<<<<<<<<<<<<<<<<<<<<<<<<<<<


                                            -------------------------------------------
                                                      TRANSPORT STEP NO.  130
                                            -------------------------------------------

 TOTAL ELAPSED TIME SINCE BEGINNING OF SIMULATION =   6500.000    D   
 .....................................................................

                     CUMMULATIVE MASS BUDGETS AT END OF TRANSPORT STEP  130, TIME STEP    1, STRESS PERIOD    1
                     ------------------------------------------------------------------------------------------

                                                             IN                           OUT
                                                      ----------------             ----------------
                               CONSTANT CONCENTRATION:    0.000000                    0.000000    
                                        CONSTANT HEAD:   0.2574611E+09              -0.2573078E+09
                                                WELLS:    0.000000                    0.000000    
                                             RECHARGE:    0.000000                    0.000000    
                               1ST/0TH ORDER REACTION:    0.000000                    0.000000    
                                MASS STORAGE (SOLUTE):   0.3609789E+08              -0.3625122E+08
                            ---------------------------------------------------------------------------
                                              [TOTAL]:   0.2935592E+09 KG           -0.2935593E+09 KG  

                                                          NET (IN - OUT):   -63.39820    
                                                   DISCREPANCY (PERCENT):  -0.2159639E-04



 >>>>>>>>>>>>>>>>>>>>>>>>>>>>>>>>>>>>>>>>>>>>>>>>>>>>>>>FOR COMPONENT NO. 02<<<<<<<<<<<<<<<<<<<<<<<<<<<<<<<<<<<<<<<<<<<<<<<<<<<<<<<


                                            -------------------------------------------
                                                      TRANSPORT STEP NO.  130
                                            -------------------------------------------

 TOTAL ELAPSED TIME SINCE BEGINNING OF SIMULATION =   6500.000    D   
 .....................................................................

                     CUMMULATIVE MASS BUDGETS AT END OF TRANSPORT STEP  130, TIME STEP    1, STRESS PERIOD    1
                     ------------------------------------------------------------------------------------------

                                                             IN                           OUT
                                                      ----------------             ----------------
                               CONSTANT CONCENTRATION:    0.000000                    0.000000    
                                        CONSTANT HEAD:    0.000000                  -0.1465880E+11
                                                WELLS:    0.000000                    0.000000    
                                             RECHARGE:    0.000000                    0.000000    
                               1ST/0TH ORDER REACTION:   0.1075750E+12                0.000000    
                                MASS STORAGE (SOLUTE):   0.2452894E+10              -0.9536909E+11
                            ---------------------------------------------------------------------------
                                              [TOTAL]:   0.1100280E+12 KG           -0.1100280E+12 KG  

                                                          NET (IN - OUT):    178.1604    
                                                   DISCREPANCY (PERCENT):   0.1619229E-06
 
 SOLVING FOR HEAD 


     2 CALLS TO PCG ROUTINE FOR TIME STEP   1 IN STRESS PERIOD    1
     9 TOTAL ITERATIONS

 MAXIMUM HEAD CHANGE FOR EACH ITERATION (1 INDICATES THE FIRST INNER ITERATION):

    HEAD CHANGE    HEAD CHANGE    HEAD CHANGE    HEAD CHANGE    HEAD CHANGE 
   LAYER,ROW,COL  LAYER,ROW,COL  LAYER,ROW,COL  LAYER,ROW,COL  LAYER,ROW,COL
 ---------------------------------------------------------------------------
  1  0.1385E-01  0 -0.4285E-02  0 -0.3992E-02  0 -0.1558E-01  0  0.1626E-01
   ( 15,  1, 86)  ( 17,  1, 89)  (  8,  1, 12)  ( 11,  1, 53)  ( 11,  1, 53)
  0 -0.2348E-02  0 -0.1058E-02  0 -0.5582E-03  1  0.4410E-03
   ( 11,  1, 49)  ( 11,  1, 65)  ( 11,  1, 41)  ( 11,  1, 40)

 MAXIMUM RESIDUAL FOR EACH ITERATION (1 INDICATES THE FIRST INNER ITERATION):

    RESIDUAL       RESIDUAL       RESIDUAL       RESIDUAL       RESIDUAL    
   LAYER,ROW,COL  LAYER,ROW,COL  LAYER,ROW,COL  LAYER,ROW,COL  LAYER,ROW,COL
 ---------------------------------------------------------------------------
  1  0.1353E+06  0 -0.9639E+05  0 -0.9561E+05  0 -0.2616E+05  0   5339.    
   ( 21,  1, 89)  ( 19,  1, 89)  ( 19,  1, 89)  ( 19,  1, 89)  ( 17,  1, 88)
  0   2735.      0   2497.      0   1122.      1   1008.    
   ( 22,  1, 87)  ( 22,  1, 87)  ( 22,  1, 87)  ( 22,  1, 87)


 FLOW MODEL IS TRANSIENT
 FLOW MODEL CONTAINS CONSTANT-HEAD CELLS


 MAXIMUM STEPSIZE DURING WHICH ANY PARTICLE CANNOT MOVE MORE THAN ONE CELL
 =  12.85    (WHEN MIN. R.F.=1)  AT K=  17, I=   1, J=  90

 MAXIMUM STEPSIZE WHICH MEETS STABILITY CRITERION OF THE ADVECTION TERM
 (FOR PURE FINITE-DIFFERENCE OPTION, MIXELM=0) 
 =  8.037    (WHEN MIN. R.F.=1)  AT K=  16, I=   1, J=  90


 TOTAL NUMBER OF POINT SOURCES/SINKS PRESENT IN THE FLOW MODEL =    30

 MAXIMUM STEPSIZE WHICH MEETS STABILITY CRITERION OF THE SINK & SOURCE TERM
 =  12.20    (WHEN MIN. R.F.=1)  AT K=  17, I=   1, J=  91

 MAXIMUM STEPSIZE WHICH MEETS STABILITY CRITERION OF THE DISPERSION TERM
 =  4.026    (WHEN MIN. R.F.=1)  AT K=  17, I=   1, J=  90
     1 CALLS TO GCG PACKAGE FOR TRANSPORT TIME STEP 131 IN FLOW TIME STEP   1 STRESS PERIOD   1
     8 TOTAL ITERATIONS
     1 CALLS TO GCG PACKAGE FOR TRANSPORT TIME STEP 131 IN FLOW TIME STEP   1 STRESS PERIOD   1
     9 TOTAL ITERATIONS
 
 SOLVING FOR HEAD 


     3 CALLS TO PCG ROUTINE FOR TIME STEP   1 IN STRESS PERIOD    1
    11 TOTAL ITERATIONS

 MAXIMUM HEAD CHANGE FOR EACH ITERATION (1 INDICATES THE FIRST INNER ITERATION):

    HEAD CHANGE    HEAD CHANGE    HEAD CHANGE    HEAD CHANGE    HEAD CHANGE 
   LAYER,ROW,COL  LAYER,ROW,COL  LAYER,ROW,COL  LAYER,ROW,COL  LAYER,ROW,COL
 ---------------------------------------------------------------------------
  1 -0.1354E-01  0  0.3969E-02  0  0.3163E-02  0  0.8676E-02  0 -0.8823E-02
   ( 15,  1, 86)  ( 17,  1, 89)  (  8,  1, 12)  (  9,  1, 46)  (  9,  1, 46)
  0  0.1392E-02  0  0.1103E-02  0  0.8290E-03  1 -0.1064E-02  0  0.2467E-03
   ( 11,  1, 68)  ( 11,  1, 53)  ( 11,  1, 70)  ( 11,  1, 70)  ( 11,  1, 70)
  1  0.4193E-04
   ( 11,  1, 51)

 MAXIMUM RESIDUAL FOR EACH ITERATION (1 INDICATES THE FIRST INNER ITERATION):

    RESIDUAL       RESIDUAL       RESIDUAL       RESIDUAL       RESIDUAL    
   LAYER,ROW,COL  LAYER,ROW,COL  LAYER,ROW,COL  LAYER,ROW,COL  LAYER,ROW,COL
 ---------------------------------------------------------------------------
  1 -0.1331E+06  0  0.9403E+05  0  0.9309E+05  0  0.3081E+05  0   5979.    
   ( 21,  1, 89)  ( 19,  1, 89)  ( 19,  1, 89)  ( 19,  1, 89)  ( 17,  1, 87)
  0  -2852.      0  -2433.      0  -790.8      1  -647.2      0  -529.9    
   ( 22,  1, 87)  ( 22,  1, 87)  ( 22,  1, 87)  ( 22,  1, 87)  ( 22,  1, 87)
  1  -505.1    
   ( 22,  1, 87)


 FLOW MODEL IS TRANSIENT
 FLOW MODEL CONTAINS CONSTANT-HEAD CELLS


 MAXIMUM STEPSIZE DURING WHICH ANY PARTICLE CANNOT MOVE MORE THAN ONE CELL
 =  13.23    (WHEN MIN. R.F.=1)  AT K=  17, I=   1, J=  90

 MAXIMUM STEPSIZE WHICH MEETS STABILITY CRITERION OF THE ADVECTION TERM
 (FOR PURE FINITE-DIFFERENCE OPTION, MIXELM=0) 
 =  8.003    (WHEN MIN. R.F.=1)  AT K=  16, I=   1, J=  90


 TOTAL NUMBER OF POINT SOURCES/SINKS PRESENT IN THE FLOW MODEL =    30

 MAXIMUM STEPSIZE WHICH MEETS STABILITY CRITERION OF THE SINK & SOURCE TERM
 =  12.17    (WHEN MIN. R.F.=1)  AT K=  17, I=   1, J=  91

 MAXIMUM STEPSIZE WHICH MEETS STABILITY CRITERION OF THE DISPERSION TERM
 =  4.379    (WHEN MIN. R.F.=1)  AT K=  17, I=   1, J=  90
     1 CALLS TO GCG PACKAGE FOR TRANSPORT TIME STEP 132 IN FLOW TIME STEP   1 STRESS PERIOD   1
     9 TOTAL ITERATIONS
     1 CALLS TO GCG PACKAGE FOR TRANSPORT TIME STEP 132 IN FLOW TIME STEP   1 STRESS PERIOD   1
     9 TOTAL ITERATIONS
 
 SOLVING FOR HEAD 


     2 CALLS TO PCG ROUTINE FOR TIME STEP   1 IN STRESS PERIOD    1
     9 TOTAL ITERATIONS

 MAXIMUM HEAD CHANGE FOR EACH ITERATION (1 INDICATES THE FIRST INNER ITERATION):

    HEAD CHANGE    HEAD CHANGE    HEAD CHANGE    HEAD CHANGE    HEAD CHANGE 
   LAYER,ROW,COL  LAYER,ROW,COL  LAYER,ROW,COL  LAYER,ROW,COL  LAYER,ROW,COL
 ---------------------------------------------------------------------------
  1  0.1341E-01  0 -0.1946E-01  0  0.1752E-01  0 -0.2273E-02  0  0.4439E-02
   ( 15,  1, 86)  (  8,  1, 12)  (  8,  1, 12)  ( 15,  1, 87)  ( 11,  1, 68)
  0 -0.2144E-02  0 -0.1120E-02  0 -0.5239E-03  1  0.4719E-03
   ( 11,  1, 68)  ( 11,  1, 70)  ( 11,  1, 60)  ( 11,  1, 70)

 MAXIMUM RESIDUAL FOR EACH ITERATION (1 INDICATES THE FIRST INNER ITERATION):

    RESIDUAL       RESIDUAL       RESIDUAL       RESIDUAL       RESIDUAL    
   LAYER,ROW,COL  LAYER,ROW,COL  LAYER,ROW,COL  LAYER,ROW,COL  LAYER,ROW,COL
 ---------------------------------------------------------------------------
  1  0.1344E+06  0  0.9408E+05  0 -0.9321E+05  0 -0.1228E+05  0   3447.    
   ( 21,  1, 89)  ( 21,  1, 89)  ( 19,  1, 89)  ( 17,  1, 87)  ( 17,  1, 88)
  0   2869.      0   1772.      0   713.2      1   609.7    
   ( 22,  1, 87)  ( 22,  1, 87)  ( 22,  1, 87)  ( 22,  1, 87)


 FLOW MODEL IS TRANSIENT
 FLOW MODEL CONTAINS CONSTANT-HEAD CELLS


 MAXIMUM STEPSIZE DURING WHICH ANY PARTICLE CANNOT MOVE MORE THAN ONE CELL
 =  12.85    (WHEN MIN. R.F.=1)  AT K=  17, I=   1, J=  90

 MAXIMUM STEPSIZE WHICH MEETS STABILITY CRITERION OF THE ADVECTION TERM
 (FOR PURE FINITE-DIFFERENCE OPTION, MIXELM=0) 
 =  8.031    (WHEN MIN. R.F.=1)  AT K=  16, I=   1, J=  90


 TOTAL NUMBER OF POINT SOURCES/SINKS PRESENT IN THE FLOW MODEL =    30

 MAXIMUM STEPSIZE WHICH MEETS STABILITY CRITERION OF THE SINK & SOURCE TERM
 =  12.20    (WHEN MIN. R.F.=1)  AT K=  17, I=   1, J=  91

 MAXIMUM STEPSIZE WHICH MEETS STABILITY CRITERION OF THE DISPERSION TERM
 =  4.029    (WHEN MIN. R.F.=1)  AT K=  17, I=   1, J=  90
     1 CALLS TO GCG PACKAGE FOR TRANSPORT TIME STEP 133 IN FLOW TIME STEP   1 STRESS PERIOD   1
     8 TOTAL ITERATIONS
     1 CALLS TO GCG PACKAGE FOR TRANSPORT TIME STEP 133 IN FLOW TIME STEP   1 STRESS PERIOD   1
     9 TOTAL ITERATIONS
 
 SOLVING FOR HEAD 


     2 CALLS TO PCG ROUTINE FOR TIME STEP   1 IN STRESS PERIOD    1
     9 TOTAL ITERATIONS

 MAXIMUM HEAD CHANGE FOR EACH ITERATION (1 INDICATES THE FIRST INNER ITERATION):

    HEAD CHANGE    HEAD CHANGE    HEAD CHANGE    HEAD CHANGE    HEAD CHANGE 
   LAYER,ROW,COL  LAYER,ROW,COL  LAYER,ROW,COL  LAYER,ROW,COL  LAYER,ROW,COL
 ---------------------------------------------------------------------------
  1 -0.1341E-01  0  0.3680E-02  0  0.2783E-02  0 -0.9168E-02  0  0.9019E-02
   ( 15,  1, 86)  ( 17,  1, 89)  (  8,  1, 12)  (  6,  1, 44)  (  8,  1, 45)
  0 -0.1718E-02  0  0.1051E-02  0  0.7221E-03  1 -0.8558E-03
   ( 11,  1, 67)  ( 11,  1, 68)  ( 11,  1, 56)  ( 11,  1, 70)

 MAXIMUM RESIDUAL FOR EACH ITERATION (1 INDICATES THE FIRST INNER ITERATION):

    RESIDUAL       RESIDUAL       RESIDUAL       RESIDUAL       RESIDUAL    
   LAYER,ROW,COL  LAYER,ROW,COL  LAYER,ROW,COL  LAYER,ROW,COL  LAYER,ROW,COL
 ---------------------------------------------------------------------------
  1 -0.1338E+06  0  0.9414E+05  0  0.9303E+05  0  0.3619E+05  0   6033.    
   ( 21,  1, 89)  ( 19,  1, 89)  ( 19,  1, 89)  ( 19,  1, 89)  ( 17,  1, 87)
  0  -2813.      0  -2527.      0  -857.5      1  -694.6    
   ( 22,  1, 87)  ( 22,  1, 87)  ( 22,  1, 87)  ( 22,  1, 87)


 FLOW MODEL IS TRANSIENT
 FLOW MODEL CONTAINS CONSTANT-HEAD CELLS


 MAXIMUM STEPSIZE DURING WHICH ANY PARTICLE CANNOT MOVE MORE THAN ONE CELL
 =  13.21    (WHEN MIN. R.F.=1)  AT K=  17, I=   1, J=  90

 MAXIMUM STEPSIZE WHICH MEETS STABILITY CRITERION OF THE ADVECTION TERM
 (FOR PURE FINITE-DIFFERENCE OPTION, MIXELM=0) 
 =  8.000    (WHEN MIN. R.F.=1)  AT K=  16, I=   1, J=  90


 TOTAL NUMBER OF POINT SOURCES/SINKS PRESENT IN THE FLOW MODEL =    30

 MAXIMUM STEPSIZE WHICH MEETS STABILITY CRITERION OF THE SINK & SOURCE TERM
 =  12.17    (WHEN MIN. R.F.=1)  AT K=  17, I=   1, J=  91

 MAXIMUM STEPSIZE WHICH MEETS STABILITY CRITERION OF THE DISPERSION TERM
 =  4.363    (WHEN MIN. R.F.=1)  AT K=  17, I=   1, J=  90
     1 CALLS TO GCG PACKAGE FOR TRANSPORT TIME STEP 134 IN FLOW TIME STEP   1 STRESS PERIOD   1
     9 TOTAL ITERATIONS
     1 CALLS TO GCG PACKAGE FOR TRANSPORT TIME STEP 134 IN FLOW TIME STEP   1 STRESS PERIOD   1
     9 TOTAL ITERATIONS
 
 SOLVING FOR HEAD 


     2 CALLS TO PCG ROUTINE FOR TIME STEP   1 IN STRESS PERIOD    1
     8 TOTAL ITERATIONS

 MAXIMUM HEAD CHANGE FOR EACH ITERATION (1 INDICATES THE FIRST INNER ITERATION):

    HEAD CHANGE    HEAD CHANGE    HEAD CHANGE    HEAD CHANGE    HEAD CHANGE 
   LAYER,ROW,COL  LAYER,ROW,COL  LAYER,ROW,COL  LAYER,ROW,COL  LAYER,ROW,COL
 ---------------------------------------------------------------------------
  1  0.1353E-01  0 -0.3671E-02  0 -0.2387E-02  0  0.1004E-01  0 -0.1084E-01
   ( 15,  1, 86)  ( 17,  1, 89)  (  8,  1, 12)  ( 11,  1, 52)  ( 11,  1, 52)
  0 -0.2307E-02  0  0.8647E-03  1 -0.5027E-03
   ( 11,  1, 67)  ( 11,  1, 67)  ( 11,  1, 67)

 MAXIMUM RESIDUAL FOR EACH ITERATION (1 INDICATES THE FIRST INNER ITERATION):

    RESIDUAL       RESIDUAL       RESIDUAL       RESIDUAL       RESIDUAL    
   LAYER,ROW,COL  LAYER,ROW,COL  LAYER,ROW,COL  LAYER,ROW,COL  LAYER,ROW,COL
 ---------------------------------------------------------------------------
  1  0.1314E+06  0 -0.9167E+05  0 -0.9033E+05  0 -0.1894E+05  0  -5085.    
   ( 21,  1, 89)  ( 19,  1, 89)  ( 19,  1, 89)  ( 19,  1, 89)  ( 17,  1, 87)
  0   2905.      0   2558.      1   2125.    
   ( 22,  1, 87)  ( 22,  1, 87)  ( 22,  1, 87)


 FLOW MODEL IS TRANSIENT
 FLOW MODEL CONTAINS CONSTANT-HEAD CELLS


 MAXIMUM STEPSIZE DURING WHICH ANY PARTICLE CANNOT MOVE MORE THAN ONE CELL
 =  12.84    (WHEN MIN. R.F.=1)  AT K=  17, I=   1, J=  90

 MAXIMUM STEPSIZE WHICH MEETS STABILITY CRITERION OF THE ADVECTION TERM
 (FOR PURE FINITE-DIFFERENCE OPTION, MIXELM=0) 
 =  8.025    (WHEN MIN. R.F.=1)  AT K=  16, I=   1, J=  90


 TOTAL NUMBER OF POINT SOURCES/SINKS PRESENT IN THE FLOW MODEL =    30

 MAXIMUM STEPSIZE WHICH MEETS STABILITY CRITERION OF THE SINK & SOURCE TERM
 =  12.20    (WHEN MIN. R.F.=1)  AT K=  17, I=   1, J=  91

 MAXIMUM STEPSIZE WHICH MEETS STABILITY CRITERION OF THE DISPERSION TERM
 =  4.027    (WHEN MIN. R.F.=1)  AT K=  17, I=   1, J=  90
     1 CALLS TO GCG PACKAGE FOR TRANSPORT TIME STEP 135 IN FLOW TIME STEP   1 STRESS PERIOD   1
     8 TOTAL ITERATIONS
  MAXIMUM CONCENTRATION CHANGES FOR EACH ITERATION:
  MAX. CHANGE LAYER,ROW,COL MAX. CHANGE LAYER,ROW,COL MAX. CHANGE LAYER,ROW,COL MAX. CHANGE LAYER,ROW,COL MAX. CHANGE LAYER,ROW,COL
 ------------------------------------------------------------------------------------------------------------------------------------
   0.5207E-01 ( 20,  1, 87)  0.4172E-02 ( 19,  1, 89)  0.2139E-02 ( 17,  1, 86)  0.4864E-03 ( 20,  1, 89)  0.9741E-04 ( 16,  1, 89)
   0.2023E-04 ( 20,  1, 89)  0.1806E-04 ( 16,  1, 90)  0.6545E-06 ( 17,  1, 90)
     1 CALLS TO GCG PACKAGE FOR TRANSPORT TIME STEP 135 IN FLOW TIME STEP   1 STRESS PERIOD   1
     9 TOTAL ITERATIONS
  MAXIMUM CONCENTRATION CHANGES FOR EACH ITERATION:
  MAX. CHANGE LAYER,ROW,COL MAX. CHANGE LAYER,ROW,COL MAX. CHANGE LAYER,ROW,COL MAX. CHANGE LAYER,ROW,COL MAX. CHANGE LAYER,ROW,COL
 ------------------------------------------------------------------------------------------------------------------------------------
   0.6413E-01 ( 20,  1, 87)  0.7351E-02 ( 20,  1, 87)  0.6635E-04 ( 23,  1, 87)  0.1299E-02 ( 17,  1, 90)  0.4096E-04 ( 16,  1, 89)
   0.2834E-04 ( 16,  1, 89)  0.1410E-04 ( 16,  1, 89)  0.1059E-05 ( 23,  1, 86)  0.1920E-06 ( 23,  1, 85)
 
 SOLVING FOR HEAD 


     2 CALLS TO PCG ROUTINE FOR TIME STEP   1 IN STRESS PERIOD    1
    10 TOTAL ITERATIONS

 MAXIMUM HEAD CHANGE FOR EACH ITERATION (1 INDICATES THE FIRST INNER ITERATION):

    HEAD CHANGE    HEAD CHANGE    HEAD CHANGE    HEAD CHANGE    HEAD CHANGE 
   LAYER,ROW,COL  LAYER,ROW,COL  LAYER,ROW,COL  LAYER,ROW,COL  LAYER,ROW,COL
 ---------------------------------------------------------------------------
  1 -0.1375E-01  0 -0.7158E-02  0  0.3662E-02  0  0.9761E-02  0 -0.7103E-02
   ( 15,  1, 86)  (  8,  1, 46)  (  7,  1, 12)  (  6,  1, 46)  (  6,  1, 46)
  0  0.4638E-02  0  0.1649E-02  0  0.1006E-02  0 -0.5817E-03  1 -0.2728E-03
   ( 11,  1, 61)  ( 11,  1, 53)  ( 11,  1, 66)  ( 11,  1, 66)  ( 11,  1, 58)

 MAXIMUM RESIDUAL FOR EACH ITERATION (1 INDICATES THE FIRST INNER ITERATION):

    RESIDUAL       RESIDUAL       RESIDUAL       RESIDUAL       RESIDUAL    
   LAYER,ROW,COL  LAYER,ROW,COL  LAYER,ROW,COL  LAYER,ROW,COL  LAYER,ROW,COL
 ---------------------------------------------------------------------------
  1 -0.1358E+06  0  0.9648E+05  0  0.9560E+05  0  0.7478E+05  0   6217.    
   ( 21,  1, 89)  ( 19,  1, 89)  ( 19,  1, 89)  ( 19,  1, 89)  ( 17,  1, 87)
  0  -2912.      0  -2595.      0  -1347.      0  -397.0      1  -341.2    
   ( 17,  1, 88)  ( 22,  1, 87)  ( 22,  1, 87)  ( 22,  1, 87)  ( 22,  1, 87)


 FLOW MODEL IS TRANSIENT
 FLOW MODEL CONTAINS CONSTANT-HEAD CELLS


 MAXIMUM STEPSIZE DURING WHICH ANY PARTICLE CANNOT MOVE MORE THAN ONE CELL
 =  13.14    (WHEN MIN. R.F.=1)  AT K=  17, I=   1, J=  90

 MAXIMUM STEPSIZE WHICH MEETS STABILITY CRITERION OF THE ADVECTION TERM
 (FOR PURE FINITE-DIFFERENCE OPTION, MIXELM=0) 
 =  7.969    (WHEN MIN. R.F.=1)  AT K=  16, I=   1, J=  90


 TOTAL NUMBER OF POINT SOURCES/SINKS PRESENT IN THE FLOW MODEL =    30

 MAXIMUM STEPSIZE WHICH MEETS STABILITY CRITERION OF THE SINK & SOURCE TERM
 =  12.08    (WHEN MIN. R.F.=1)  AT K=  17, I=   1, J=  91

 MAXIMUM STEPSIZE WHICH MEETS STABILITY CRITERION OF THE DISPERSION TERM
 =  4.333    (WHEN MIN. R.F.=1)  AT K=  17, I=   1, J=  90
     1 CALLS TO GCG PACKAGE FOR TRANSPORT TIME STEP 136 IN FLOW TIME STEP   1 STRESS PERIOD   1
     9 TOTAL ITERATIONS
     1 CALLS TO GCG PACKAGE FOR TRANSPORT TIME STEP 136 IN FLOW TIME STEP   1 STRESS PERIOD   1
     9 TOTAL ITERATIONS
 
 SOLVING FOR HEAD 


     2 CALLS TO PCG ROUTINE FOR TIME STEP   1 IN STRESS PERIOD    1
     8 TOTAL ITERATIONS

 MAXIMUM HEAD CHANGE FOR EACH ITERATION (1 INDICATES THE FIRST INNER ITERATION):

    HEAD CHANGE    HEAD CHANGE    HEAD CHANGE    HEAD CHANGE    HEAD CHANGE 
   LAYER,ROW,COL  LAYER,ROW,COL  LAYER,ROW,COL  LAYER,ROW,COL  LAYER,ROW,COL
 ---------------------------------------------------------------------------
  1  0.1359E-01  0 -0.3919E-02  0 -0.2737E-02  0 -0.5948E-02  0  0.7960E-02
   ( 15,  1, 86)  ( 17,  1, 89)  (  8,  1, 12)  ( 11,  1, 69)  ( 11,  1, 69)
  0 -0.2196E-02  0 -0.8166E-03  1 -0.5644E-03
   ( 11,  1, 68)  ( 11,  1, 53)  ( 11,  1, 62)

 MAXIMUM RESIDUAL FOR EACH ITERATION (1 INDICATES THE FIRST INNER ITERATION):

    RESIDUAL       RESIDUAL       RESIDUAL       RESIDUAL       RESIDUAL    
   LAYER,ROW,COL  LAYER,ROW,COL  LAYER,ROW,COL  LAYER,ROW,COL  LAYER,ROW,COL
 ---------------------------------------------------------------------------
  1  0.1336E+06  0 -0.9456E+05  0 -0.9346E+05  0 -0.1740E+05  0   4712.    
   ( 21,  1, 89)  ( 19,  1, 89)  ( 19,  1, 89)  ( 19,  1, 89)  ( 17,  1, 88)
  0   2786.      0   2293.      1   2006.    
   ( 22,  1, 87)  ( 22,  1, 87)  ( 22,  1, 87)


 FLOW MODEL IS TRANSIENT
 FLOW MODEL CONTAINS CONSTANT-HEAD CELLS


 MAXIMUM STEPSIZE DURING WHICH ANY PARTICLE CANNOT MOVE MORE THAN ONE CELL
 =  12.81    (WHEN MIN. R.F.=1)  AT K=  17, I=   1, J=  90

 MAXIMUM STEPSIZE WHICH MEETS STABILITY CRITERION OF THE ADVECTION TERM
 (FOR PURE FINITE-DIFFERENCE OPTION, MIXELM=0) 
 =  8.013    (WHEN MIN. R.F.=1)  AT K=  16, I=   1, J=  90


 TOTAL NUMBER OF POINT SOURCES/SINKS PRESENT IN THE FLOW MODEL =    30

 MAXIMUM STEPSIZE WHICH MEETS STABILITY CRITERION OF THE SINK & SOURCE TERM
 =  12.15    (WHEN MIN. R.F.=1)  AT K=  17, I=   1, J=  91

 MAXIMUM STEPSIZE WHICH MEETS STABILITY CRITERION OF THE DISPERSION TERM
 =  4.012    (WHEN MIN. R.F.=1)  AT K=  17, I=   1, J=  90
     1 CALLS TO GCG PACKAGE FOR TRANSPORT TIME STEP 137 IN FLOW TIME STEP   1 STRESS PERIOD   1
     8 TOTAL ITERATIONS
     1 CALLS TO GCG PACKAGE FOR TRANSPORT TIME STEP 137 IN FLOW TIME STEP   1 STRESS PERIOD   1
     9 TOTAL ITERATIONS
 
 SOLVING FOR HEAD 


     2 CALLS TO PCG ROUTINE FOR TIME STEP   1 IN STRESS PERIOD    1
     9 TOTAL ITERATIONS

 MAXIMUM HEAD CHANGE FOR EACH ITERATION (1 INDICATES THE FIRST INNER ITERATION):

    HEAD CHANGE    HEAD CHANGE    HEAD CHANGE    HEAD CHANGE    HEAD CHANGE 
   LAYER,ROW,COL  LAYER,ROW,COL  LAYER,ROW,COL  LAYER,ROW,COL  LAYER,ROW,COL
 ---------------------------------------------------------------------------
  1 -0.1360E-01  0 -0.4609E-02  0  0.3348E-02  0  0.8740E-02  0 -0.7638E-02
   ( 15,  1, 86)  (  7,  1, 40)  (  7,  1, 12)  ( 11,  1, 62)  (  9,  1, 53)
  0  0.2961E-02  0  0.1382E-02  0  0.6934E-03  1 -0.5974E-03
   ( 11,  1, 69)  ( 11,  1, 61)  ( 11,  1, 66)  ( 11,  1, 65)

 MAXIMUM RESIDUAL FOR EACH ITERATION (1 INDICATES THE FIRST INNER ITERATION):

    RESIDUAL       RESIDUAL       RESIDUAL       RESIDUAL       RESIDUAL    
   LAYER,ROW,COL  LAYER,ROW,COL  LAYER,ROW,COL  LAYER,ROW,COL  LAYER,ROW,COL
 ---------------------------------------------------------------------------
  1 -0.1314E+06  0  0.9200E+05  0  0.9113E+05  0  0.6130E+05  0   6131.    
   ( 21,  1, 89)  ( 19,  1, 89)  ( 19,  1, 89)  ( 19,  1, 89)  ( 17,  1, 87)
  0  -2766.      0  -2579.      0  -752.4      1  -639.9    
   ( 22,  1, 87)  ( 22,  1, 87)  ( 22,  1, 87)  ( 22,  1, 87)


 FLOW MODEL IS TRANSIENT
 FLOW MODEL CONTAINS CONSTANT-HEAD CELLS


 MAXIMUM STEPSIZE DURING WHICH ANY PARTICLE CANNOT MOVE MORE THAN ONE CELL
 =  13.15    (WHEN MIN. R.F.=1)  AT K=  17, I=   1, J=  90

 MAXIMUM STEPSIZE WHICH MEETS STABILITY CRITERION OF THE ADVECTION TERM
 (FOR PURE FINITE-DIFFERENCE OPTION, MIXELM=0) 
 =  7.971    (WHEN MIN. R.F.=1)  AT K=  16, I=   1, J=  90


 TOTAL NUMBER OF POINT SOURCES/SINKS PRESENT IN THE FLOW MODEL =    30

 MAXIMUM STEPSIZE WHICH MEETS STABILITY CRITERION OF THE SINK & SOURCE TERM
 =  12.09    (WHEN MIN. R.F.=1)  AT K=  17, I=   1, J=  91

 MAXIMUM STEPSIZE WHICH MEETS STABILITY CRITERION OF THE DISPERSION TERM
 =  4.337    (WHEN MIN. R.F.=1)  AT K=  17, I=   1, J=  90
     1 CALLS TO GCG PACKAGE FOR TRANSPORT TIME STEP 138 IN FLOW TIME STEP   1 STRESS PERIOD   1
    10 TOTAL ITERATIONS
     1 CALLS TO GCG PACKAGE FOR TRANSPORT TIME STEP 138 IN FLOW TIME STEP   1 STRESS PERIOD   1
     9 TOTAL ITERATIONS
 
 SOLVING FOR HEAD 


     2 CALLS TO PCG ROUTINE FOR TIME STEP   1 IN STRESS PERIOD    1
     8 TOTAL ITERATIONS

 MAXIMUM HEAD CHANGE FOR EACH ITERATION (1 INDICATES THE FIRST INNER ITERATION):

    HEAD CHANGE    HEAD CHANGE    HEAD CHANGE    HEAD CHANGE    HEAD CHANGE 
   LAYER,ROW,COL  LAYER,ROW,COL  LAYER,ROW,COL  LAYER,ROW,COL  LAYER,ROW,COL
 ---------------------------------------------------------------------------
  1  0.1362E-01  0 -0.4015E-02  0 -0.3125E-02  0  0.8274E-02  0  0.9556E-02
   ( 15,  1, 86)  ( 17,  1, 89)  (  8,  1, 12)  ( 11,  1, 49)  ( 11,  1, 58)
  0 -0.2720E-02  0 -0.9342E-03  1  0.4965E-03
   ( 11,  1, 57)  ( 11,  1, 70)  ( 11,  1, 39)

 MAXIMUM RESIDUAL FOR EACH ITERATION (1 INDICATES THE FIRST INNER ITERATION):

    RESIDUAL       RESIDUAL       RESIDUAL       RESIDUAL       RESIDUAL    
   LAYER,ROW,COL  LAYER,ROW,COL  LAYER,ROW,COL  LAYER,ROW,COL  LAYER,ROW,COL
 ---------------------------------------------------------------------------
  1  0.1320E+06  0 -0.9321E+05  0 -0.9227E+05  0 -0.2011E+05  0   4710.    
   ( 21,  1, 89)  ( 19,  1, 89)  ( 19,  1, 89)  ( 19,  1, 89)  ( 17,  1, 88)
  0   2771.      0   2331.      1   1995.    
   ( 22,  1, 87)  ( 22,  1, 87)  ( 22,  1, 87)


 FLOW MODEL IS TRANSIENT
 FLOW MODEL CONTAINS CONSTANT-HEAD CELLS


 MAXIMUM STEPSIZE DURING WHICH ANY PARTICLE CANNOT MOVE MORE THAN ONE CELL
 =  12.82    (WHEN MIN. R.F.=1)  AT K=  17, I=   1, J=  90

 MAXIMUM STEPSIZE WHICH MEETS STABILITY CRITERION OF THE ADVECTION TERM
 (FOR PURE FINITE-DIFFERENCE OPTION, MIXELM=0) 
 =  8.016    (WHEN MIN. R.F.=1)  AT K=  16, I=   1, J=  90


 TOTAL NUMBER OF POINT SOURCES/SINKS PRESENT IN THE FLOW MODEL =    30

 MAXIMUM STEPSIZE WHICH MEETS STABILITY CRITERION OF THE SINK & SOURCE TERM
 =  12.17    (WHEN MIN. R.F.=1)  AT K=  17, I=   1, J=  91

 MAXIMUM STEPSIZE WHICH MEETS STABILITY CRITERION OF THE DISPERSION TERM
 =  4.015    (WHEN MIN. R.F.=1)  AT K=  17, I=   1, J=  90
     1 CALLS TO GCG PACKAGE FOR TRANSPORT TIME STEP 139 IN FLOW TIME STEP   1 STRESS PERIOD   1
     8 TOTAL ITERATIONS
     1 CALLS TO GCG PACKAGE FOR TRANSPORT TIME STEP 139 IN FLOW TIME STEP   1 STRESS PERIOD   1
     9 TOTAL ITERATIONS
 
 SOLVING FOR HEAD 


     2 CALLS TO PCG ROUTINE FOR TIME STEP   1 IN STRESS PERIOD    1
    10 TOTAL ITERATIONS

 MAXIMUM HEAD CHANGE FOR EACH ITERATION (1 INDICATES THE FIRST INNER ITERATION):

    HEAD CHANGE    HEAD CHANGE    HEAD CHANGE    HEAD CHANGE    HEAD CHANGE 
   LAYER,ROW,COL  LAYER,ROW,COL  LAYER,ROW,COL  LAYER,ROW,COL  LAYER,ROW,COL
 ---------------------------------------------------------------------------
  1 -0.1363E-01  0 -0.5350E-02  0  0.3444E-02  0 -0.1015E-01  0 -0.8503E-02
   ( 15,  1, 86)  (  5,  1, 43)  (  8,  1, 12)  ( 11,  1, 38)  (  6,  1, 45)
  0  0.3534E-02  0  0.1145E-02  0  0.1112E-02  0 -0.6553E-03  1 -0.2881E-03
   ( 11,  1, 69)  ( 11,  1, 49)  ( 11,  1, 65)  ( 11,  1, 65)  ( 11,  1, 56)

 MAXIMUM RESIDUAL FOR EACH ITERATION (1 INDICATES THE FIRST INNER ITERATION):

    RESIDUAL       RESIDUAL       RESIDUAL       RESIDUAL       RESIDUAL    
   LAYER,ROW,COL  LAYER,ROW,COL  LAYER,ROW,COL  LAYER,ROW,COL  LAYER,ROW,COL
 ---------------------------------------------------------------------------
  1 -0.1318E+06  0  0.9265E+05  0  0.9179E+05  0  0.6232E+05  0   6248.    
   ( 21,  1, 89)  ( 19,  1, 89)  ( 19,  1, 89)  ( 19,  1, 89)  ( 17,  1, 87)
  0  -2866.      0  -2586.      0  -1471.      0  -409.2      1  -352.7    
   ( 17,  1, 88)  ( 22,  1, 87)  ( 22,  1, 87)  ( 22,  1, 87)  ( 22,  1, 87)


 FLOW MODEL IS TRANSIENT
 FLOW MODEL CONTAINS CONSTANT-HEAD CELLS


 MAXIMUM STEPSIZE DURING WHICH ANY PARTICLE CANNOT MOVE MORE THAN ONE CELL
 =  13.15    (WHEN MIN. R.F.=1)  AT K=  17, I=   1, J=  90

 MAXIMUM STEPSIZE WHICH MEETS STABILITY CRITERION OF THE ADVECTION TERM
 (FOR PURE FINITE-DIFFERENCE OPTION, MIXELM=0) 
 =  7.973    (WHEN MIN. R.F.=1)  AT K=  16, I=   1, J=  90


 TOTAL NUMBER OF POINT SOURCES/SINKS PRESENT IN THE FLOW MODEL =    30

 MAXIMUM STEPSIZE WHICH MEETS STABILITY CRITERION OF THE SINK & SOURCE TERM
 =  12.10    (WHEN MIN. R.F.=1)  AT K=  17, I=   1, J=  91

 MAXIMUM STEPSIZE WHICH MEETS STABILITY CRITERION OF THE DISPERSION TERM
 =  4.343    (WHEN MIN. R.F.=1)  AT K=  17, I=   1, J=  90
     1 CALLS TO GCG PACKAGE FOR TRANSPORT TIME STEP 140 IN FLOW TIME STEP   1 STRESS PERIOD   1
     9 TOTAL ITERATIONS
  MAXIMUM CONCENTRATION CHANGES FOR EACH ITERATION:
  MAX. CHANGE LAYER,ROW,COL MAX. CHANGE LAYER,ROW,COL MAX. CHANGE LAYER,ROW,COL MAX. CHANGE LAYER,ROW,COL MAX. CHANGE LAYER,ROW,COL
 ------------------------------------------------------------------------------------------------------------------------------------
   0.4913E-01 ( 20,  1, 87)  0.3291E-02 ( 19,  1, 87)  0.2206E-02 ( 18,  1, 87)  0.2148E-03 ( 16,  1, 88)  0.1419E-03 ( 16,  1, 89)
   0.2922E-04 ( 16,  1, 90)  0.1205E-05 ( 21,  1, 78)  0.3095E-05 ( 21,  1, 78)  0.9579E-06 ( 16,  1, 89)
     1 CALLS TO GCG PACKAGE FOR TRANSPORT TIME STEP 140 IN FLOW TIME STEP   1 STRESS PERIOD   1
     9 TOTAL ITERATIONS
  MAXIMUM CONCENTRATION CHANGES FOR EACH ITERATION:
  MAX. CHANGE LAYER,ROW,COL MAX. CHANGE LAYER,ROW,COL MAX. CHANGE LAYER,ROW,COL MAX. CHANGE LAYER,ROW,COL MAX. CHANGE LAYER,ROW,COL
 ------------------------------------------------------------------------------------------------------------------------------------
   0.5916E-01 ( 19,  1, 88)  0.8333E-02 ( 19,  1, 87)  0.2345E-02 ( 18,  1, 87)  0.3819E-02 ( 18,  1, 87)  0.1535E-03 ( 17,  1, 89)
   0.4015E-04 ( 17,  1, 90)  0.7171E-05 ( 17,  1, 90)  0.1606E-05 ( 17,  1, 90)  0.1402E-06 ( 23,  1, 85)



 >>>>>>>>>>>>>>>>>>>>>>>>>>>>>>>>>>>>>>>>>>>>>>>>>>>>>>>FOR COMPONENT NO. 01<<<<<<<<<<<<<<<<<<<<<<<<<<<<<<<<<<<<<<<<<<<<<<<<<<<<<<<


                                            -------------------------------------------
                                                      TRANSPORT STEP NO.  140
                                            -------------------------------------------

 TOTAL ELAPSED TIME SINCE BEGINNING OF SIMULATION =   7000.000    D   
 .....................................................................

                     CUMMULATIVE MASS BUDGETS AT END OF TRANSPORT STEP  140, TIME STEP    1, STRESS PERIOD    1
                     ------------------------------------------------------------------------------------------

                                                             IN                           OUT
                                                      ----------------             ----------------
                               CONSTANT CONCENTRATION:    0.000000                    0.000000    
                                        CONSTANT HEAD:   0.2772801E+09              -0.2771227E+09
                                                WELLS:    0.000000                    0.000000    
                                             RECHARGE:    0.000000                    0.000000    
                               1ST/0TH ORDER REACTION:    0.000000                    0.000000    
                                MASS STORAGE (SOLUTE):   0.3886083E+08              -0.3901820E+08
                            ---------------------------------------------------------------------------
                                              [TOTAL]:   0.3161412E+09 KG           -0.3161413E+09 KG  

                                                          NET (IN - OUT):   -55.80607    
                                                   DISCREPANCY (PERCENT):  -0.1765226E-04



 >>>>>>>>>>>>>>>>>>>>>>>>>>>>>>>>>>>>>>>>>>>>>>>>>>>>>>>FOR COMPONENT NO. 02<<<<<<<<<<<<<<<<<<<<<<<<<<<<<<<<<<<<<<<<<<<<<<<<<<<<<<<


                                            -------------------------------------------
                                                      TRANSPORT STEP NO.  140
                                            -------------------------------------------

 TOTAL ELAPSED TIME SINCE BEGINNING OF SIMULATION =   7000.000    D   
 .....................................................................

                     CUMMULATIVE MASS BUDGETS AT END OF TRANSPORT STEP  140, TIME STEP    1, STRESS PERIOD    1
                     ------------------------------------------------------------------------------------------

                                                             IN                           OUT
                                                      ----------------             ----------------
                               CONSTANT CONCENTRATION:    0.000000                    0.000000    
                                        CONSTANT HEAD:    0.000000                  -0.1668563E+11
                                                WELLS:    0.000000                    0.000000    
                                             RECHARGE:    0.000000                    0.000000    
                               1ST/0TH ORDER REACTION:   0.1158500E+12                0.000000    
                                MASS STORAGE (SOLUTE):   0.2923574E+10              -0.1020879E+12
                            ---------------------------------------------------------------------------
                                              [TOTAL]:   0.1187736E+12 KG           -0.1187736E+12 KG  

                                                          NET (IN - OUT):    149.1657    
                                                   DISCREPANCY (PERCENT):   0.1255882E-06
 
 SOLVING FOR HEAD 


     2 CALLS TO PCG ROUTINE FOR TIME STEP   1 IN STRESS PERIOD    1
     8 TOTAL ITERATIONS

 MAXIMUM HEAD CHANGE FOR EACH ITERATION (1 INDICATES THE FIRST INNER ITERATION):

    HEAD CHANGE    HEAD CHANGE    HEAD CHANGE    HEAD CHANGE    HEAD CHANGE 
   LAYER,ROW,COL  LAYER,ROW,COL  LAYER,ROW,COL  LAYER,ROW,COL  LAYER,ROW,COL
 ---------------------------------------------------------------------------
  1  0.1355E-01  0 -0.3946E-02  0 -0.2860E-02  0  0.7200E-02  0 -0.8237E-02
   ( 15,  1, 86)  ( 17,  1, 89)  (  8,  1, 12)  ( 11,  1, 55)  ( 11,  1, 55)
  0  0.2174E-02  0 -0.6112E-03  1 -0.4323E-03
   ( 11,  1, 53)  ( 11,  1, 50)  (  6,  1, 33)

 MAXIMUM RESIDUAL FOR EACH ITERATION (1 INDICATES THE FIRST INNER ITERATION):

    RESIDUAL       RESIDUAL       RESIDUAL       RESIDUAL       RESIDUAL    
   LAYER,ROW,COL  LAYER,ROW,COL  LAYER,ROW,COL  LAYER,ROW,COL  LAYER,ROW,COL
 ---------------------------------------------------------------------------
  1  0.1325E+06  0 -0.9321E+05  0 -0.9219E+05  0 -0.1589E+05  0   4605.    
   ( 21,  1, 89)  ( 19,  1, 89)  ( 19,  1, 89)  ( 19,  1, 89)  ( 17,  1, 88)
  0   2798.      0   2385.      1   2045.    
   ( 22,  1, 87)  ( 22,  1, 87)  ( 22,  1, 87)


 FLOW MODEL IS TRANSIENT
 FLOW MODEL CONTAINS CONSTANT-HEAD CELLS


 MAXIMUM STEPSIZE DURING WHICH ANY PARTICLE CANNOT MOVE MORE THAN ONE CELL
 =  12.81    (WHEN MIN. R.F.=1)  AT K=  17, I=   1, J=  90

 MAXIMUM STEPSIZE WHICH MEETS STABILITY CRITERION OF THE ADVECTION TERM
 (FOR PURE FINITE-DIFFERENCE OPTION, MIXELM=0) 
 =  8.012    (WHEN MIN. R.F.=1)  AT K=  16, I=   1, J=  90


 TOTAL NUMBER OF POINT SOURCES/SINKS PRESENT IN THE FLOW MODEL =    30

 MAXIMUM STEPSIZE WHICH MEETS STABILITY CRITERION OF THE SINK & SOURCE TERM
 =  12.16    (WHEN MIN. R.F.=1)  AT K=  17, I=   1, J=  91

 MAXIMUM STEPSIZE WHICH MEETS STABILITY CRITERION OF THE DISPERSION TERM
 =  4.013    (WHEN MIN. R.F.=1)  AT K=  17, I=   1, J=  90
     1 CALLS TO GCG PACKAGE FOR TRANSPORT TIME STEP 141 IN FLOW TIME STEP   1 STRESS PERIOD   1
     8 TOTAL ITERATIONS
     1 CALLS TO GCG PACKAGE FOR TRANSPORT TIME STEP 141 IN FLOW TIME STEP   1 STRESS PERIOD   1
     9 TOTAL ITERATIONS
 
 SOLVING FOR HEAD 


     2 CALLS TO PCG ROUTINE FOR TIME STEP   1 IN STRESS PERIOD    1
     9 TOTAL ITERATIONS

 MAXIMUM HEAD CHANGE FOR EACH ITERATION (1 INDICATES THE FIRST INNER ITERATION):

    HEAD CHANGE    HEAD CHANGE    HEAD CHANGE    HEAD CHANGE    HEAD CHANGE 
   LAYER,ROW,COL  LAYER,ROW,COL  LAYER,ROW,COL  LAYER,ROW,COL  LAYER,ROW,COL
 ---------------------------------------------------------------------------
  1 -0.1361E-01  0 -0.5492E-02  0  0.3241E-02  0  0.8977E-02  0 -0.7452E-02
   ( 15,  1, 86)  (  6,  1, 34)  (  7,  1, 12)  ( 10,  1, 51)  (  9,  1, 50)
  0  0.2791E-02  0  0.1021E-02  0  0.8176E-03  1 -0.5873E-03
   ( 11,  1, 62)  ( 11,  1, 55)  ( 11,  1, 66)  ( 11,  1, 66)

 MAXIMUM RESIDUAL FOR EACH ITERATION (1 INDICATES THE FIRST INNER ITERATION):

    RESIDUAL       RESIDUAL       RESIDUAL       RESIDUAL       RESIDUAL    
   LAYER,ROW,COL  LAYER,ROW,COL  LAYER,ROW,COL  LAYER,ROW,COL  LAYER,ROW,COL
 ---------------------------------------------------------------------------
  1 -0.1322E+06  0  0.9300E+05  0  0.9208E+05  0  0.6697E+05  0   6342.    
   ( 21,  1, 89)  ( 19,  1, 89)  ( 19,  1, 89)  ( 19,  1, 89)  ( 17,  1, 87)
  0  -2833.      0  -2560.      0  -970.5      1  -859.1    
   ( 17,  1, 88)  ( 22,  1, 87)  ( 22,  1, 87)  ( 22,  1, 87)


 FLOW MODEL IS TRANSIENT
 FLOW MODEL CONTAINS CONSTANT-HEAD CELLS


 MAXIMUM STEPSIZE DURING WHICH ANY PARTICLE CANNOT MOVE MORE THAN ONE CELL
 =  13.14    (WHEN MIN. R.F.=1)  AT K=  17, I=   1, J=  90

 MAXIMUM STEPSIZE WHICH MEETS STABILITY CRITERION OF THE ADVECTION TERM
 (FOR PURE FINITE-DIFFERENCE OPTION, MIXELM=0) 
 =  7.970    (WHEN MIN. R.F.=1)  AT K=  16, I=   1, J=  90


 TOTAL NUMBER OF POINT SOURCES/SINKS PRESENT IN THE FLOW MODEL =    30

 MAXIMUM STEPSIZE WHICH MEETS STABILITY CRITERION OF THE SINK & SOURCE TERM
 =  12.09    (WHEN MIN. R.F.=1)  AT K=  17, I=   1, J=  91

 MAXIMUM STEPSIZE WHICH MEETS STABILITY CRITERION OF THE DISPERSION TERM
 =  4.339    (WHEN MIN. R.F.=1)  AT K=  17, I=   1, J=  90
     1 CALLS TO GCG PACKAGE FOR TRANSPORT TIME STEP 142 IN FLOW TIME STEP   1 STRESS PERIOD   1
    10 TOTAL ITERATIONS
     1 CALLS TO GCG PACKAGE FOR TRANSPORT TIME STEP 142 IN FLOW TIME STEP   1 STRESS PERIOD   1
     9 TOTAL ITERATIONS
 
 SOLVING FOR HEAD 


     2 CALLS TO PCG ROUTINE FOR TIME STEP   1 IN STRESS PERIOD    1
     8 TOTAL ITERATIONS

 MAXIMUM HEAD CHANGE FOR EACH ITERATION (1 INDICATES THE FIRST INNER ITERATION):

    HEAD CHANGE    HEAD CHANGE    HEAD CHANGE    HEAD CHANGE    HEAD CHANGE 
   LAYER,ROW,COL  LAYER,ROW,COL  LAYER,ROW,COL  LAYER,ROW,COL  LAYER,ROW,COL
 ---------------------------------------------------------------------------
  1  0.1369E-01  0 -0.4078E-02  0 -0.3553E-02  0 -0.9553E-02  0  0.1050E-01
   ( 15,  1, 86)  ( 17,  1, 89)  (  8,  1, 12)  ( 11,  1, 50)  ( 11,  1, 51)
  0 -0.1783E-02  0 -0.7822E-03  1 -0.7237E-03
   ( 11,  1, 54)  ( 11,  1, 70)  ( 11,  1, 56)

 MAXIMUM RESIDUAL FOR EACH ITERATION (1 INDICATES THE FIRST INNER ITERATION):

    RESIDUAL       RESIDUAL       RESIDUAL       RESIDUAL       RESIDUAL    
   LAYER,ROW,COL  LAYER,ROW,COL  LAYER,ROW,COL  LAYER,ROW,COL  LAYER,ROW,COL
 ---------------------------------------------------------------------------
  1  0.1326E+06  0 -0.9361E+05  0 -0.9278E+05  0 -0.2340E+05  0   5109.    
   ( 21,  1, 89)  ( 19,  1, 89)  ( 19,  1, 89)  ( 19,  1, 89)  ( 17,  1, 88)
  0   2794.      0   2062.      1   1817.    
   ( 22,  1, 87)  ( 22,  1, 87)  ( 22,  1, 87)


 FLOW MODEL IS TRANSIENT
 FLOW MODEL CONTAINS CONSTANT-HEAD CELLS


 MAXIMUM STEPSIZE DURING WHICH ANY PARTICLE CANNOT MOVE MORE THAN ONE CELL
 =  12.83    (WHEN MIN. R.F.=1)  AT K=  17, I=   1, J=  90

 MAXIMUM STEPSIZE WHICH MEETS STABILITY CRITERION OF THE ADVECTION TERM
 (FOR PURE FINITE-DIFFERENCE OPTION, MIXELM=0) 
 =  8.021    (WHEN MIN. R.F.=1)  AT K=  16, I=   1, J=  90


 TOTAL NUMBER OF POINT SOURCES/SINKS PRESENT IN THE FLOW MODEL =    30

 MAXIMUM STEPSIZE WHICH MEETS STABILITY CRITERION OF THE SINK & SOURCE TERM
 =  12.18    (WHEN MIN. R.F.=1)  AT K=  17, I=   1, J=  91

 MAXIMUM STEPSIZE WHICH MEETS STABILITY CRITERION OF THE DISPERSION TERM
 =  4.020    (WHEN MIN. R.F.=1)  AT K=  17, I=   1, J=  90
     1 CALLS TO GCG PACKAGE FOR TRANSPORT TIME STEP 143 IN FLOW TIME STEP   1 STRESS PERIOD   1
     8 TOTAL ITERATIONS
     1 CALLS TO GCG PACKAGE FOR TRANSPORT TIME STEP 143 IN FLOW TIME STEP   1 STRESS PERIOD   1
     9 TOTAL ITERATIONS
 
 SOLVING FOR HEAD 


     2 CALLS TO PCG ROUTINE FOR TIME STEP   1 IN STRESS PERIOD    1
     9 TOTAL ITERATIONS

 MAXIMUM HEAD CHANGE FOR EACH ITERATION (1 INDICATES THE FIRST INNER ITERATION):

    HEAD CHANGE    HEAD CHANGE    HEAD CHANGE    HEAD CHANGE    HEAD CHANGE 
   LAYER,ROW,COL  LAYER,ROW,COL  LAYER,ROW,COL  LAYER,ROW,COL  LAYER,ROW,COL
 ---------------------------------------------------------------------------
  1 -0.1360E-01  0  0.3971E-02  0  0.3155E-02  0  0.1147E-01  0 -0.9655E-02
   ( 15,  1, 86)  ( 17,  1, 89)  (  8,  1, 12)  ( 11,  1, 56)  ( 11,  1, 56)
  0 -0.2272E-02  0  0.1360E-02  0  0.9492E-03  1 -0.7016E-03
   ( 11,  1, 36)  ( 11,  1, 55)  ( 11,  1, 66)  ( 11,  1, 66)

 MAXIMUM RESIDUAL FOR EACH ITERATION (1 INDICATES THE FIRST INNER ITERATION):

    RESIDUAL       RESIDUAL       RESIDUAL       RESIDUAL       RESIDUAL    
   LAYER,ROW,COL  LAYER,ROW,COL  LAYER,ROW,COL  LAYER,ROW,COL  LAYER,ROW,COL
 ---------------------------------------------------------------------------
  1 -0.1322E+06  0  0.9321E+05  0  0.9228E+05  0  0.4153E+05  0   5870.    
   ( 21,  1, 89)  ( 19,  1, 89)  ( 19,  1, 89)  ( 19,  1, 89)  ( 17,  1, 87)
  0  -2756.      0  -2580.      0  -1008.      1  -885.9    
   ( 22,  1, 87)  ( 22,  1, 87)  ( 22,  1, 87)  ( 22,  1, 87)


 FLOW MODEL IS TRANSIENT
 FLOW MODEL CONTAINS CONSTANT-HEAD CELLS


 MAXIMUM STEPSIZE DURING WHICH ANY PARTICLE CANNOT MOVE MORE THAN ONE CELL
 =  13.17    (WHEN MIN. R.F.=1)  AT K=  17, I=   1, J=  90

 MAXIMUM STEPSIZE WHICH MEETS STABILITY CRITERION OF THE ADVECTION TERM
 (FOR PURE FINITE-DIFFERENCE OPTION, MIXELM=0) 
 =  7.980    (WHEN MIN. R.F.=1)  AT K=  16, I=   1, J=  90


 TOTAL NUMBER OF POINT SOURCES/SINKS PRESENT IN THE FLOW MODEL =    30

 MAXIMUM STEPSIZE WHICH MEETS STABILITY CRITERION OF THE SINK & SOURCE TERM
 =  12.13    (WHEN MIN. R.F.=1)  AT K=  17, I=   1, J=  91

 MAXIMUM STEPSIZE WHICH MEETS STABILITY CRITERION OF THE DISPERSION TERM
 =  4.352    (WHEN MIN. R.F.=1)  AT K=  17, I=   1, J=  90
     1 CALLS TO GCG PACKAGE FOR TRANSPORT TIME STEP 144 IN FLOW TIME STEP   1 STRESS PERIOD   1
    10 TOTAL ITERATIONS
     1 CALLS TO GCG PACKAGE FOR TRANSPORT TIME STEP 144 IN FLOW TIME STEP   1 STRESS PERIOD   1
     9 TOTAL ITERATIONS
 
 SOLVING FOR HEAD 


     2 CALLS TO PCG ROUTINE FOR TIME STEP   1 IN STRESS PERIOD    1
     9 TOTAL ITERATIONS

 MAXIMUM HEAD CHANGE FOR EACH ITERATION (1 INDICATES THE FIRST INNER ITERATION):

    HEAD CHANGE    HEAD CHANGE    HEAD CHANGE    HEAD CHANGE    HEAD CHANGE 
   LAYER,ROW,COL  LAYER,ROW,COL  LAYER,ROW,COL  LAYER,ROW,COL  LAYER,ROW,COL
 ---------------------------------------------------------------------------
  1  0.1363E-01  0 -0.4021E-02  0 -0.3389E-02  0  0.1010E-01  0 -0.9891E-02
   ( 15,  1, 86)  ( 17,  1, 89)  (  8,  1, 12)  ( 11,  1, 68)  ( 11,  1, 68)
  0 -0.2031E-02  0 -0.1054E-02  0 -0.5258E-03  1  0.4990E-03
   ( 11,  1, 54)  ( 11,  1, 61)  ( 11,  1, 70)  ( 11,  1, 70)

 MAXIMUM RESIDUAL FOR EACH ITERATION (1 INDICATES THE FIRST INNER ITERATION):

    RESIDUAL       RESIDUAL       RESIDUAL       RESIDUAL       RESIDUAL    
   LAYER,ROW,COL  LAYER,ROW,COL  LAYER,ROW,COL  LAYER,ROW,COL  LAYER,ROW,COL
 ---------------------------------------------------------------------------
  1  0.1334E+06  0 -0.9410E+05  0 -0.9322E+05  0 -0.2197E+05  0  -5018.    
   ( 21,  1, 89)  ( 19,  1, 89)  ( 19,  1, 89)  ( 19,  1, 89)  ( 17,  1, 87)
  0   2800.      0   2445.      0   873.9      1   767.9    
   ( 22,  1, 87)  ( 22,  1, 87)  ( 22,  1, 87)  ( 22,  1, 87)


 FLOW MODEL IS TRANSIENT
 FLOW MODEL CONTAINS CONSTANT-HEAD CELLS


 MAXIMUM STEPSIZE DURING WHICH ANY PARTICLE CANNOT MOVE MORE THAN ONE CELL
 =  12.84    (WHEN MIN. R.F.=1)  AT K=  17, I=   1, J=  90

 MAXIMUM STEPSIZE WHICH MEETS STABILITY CRITERION OF THE ADVECTION TERM
 (FOR PURE FINITE-DIFFERENCE OPTION, MIXELM=0) 
 =  8.028    (WHEN MIN. R.F.=1)  AT K=  16, I=   1, J=  90


 TOTAL NUMBER OF POINT SOURCES/SINKS PRESENT IN THE FLOW MODEL =    30

 MAXIMUM STEPSIZE WHICH MEETS STABILITY CRITERION OF THE SINK & SOURCE TERM
 =  12.20    (WHEN MIN. R.F.=1)  AT K=  17, I=   1, J=  91

 MAXIMUM STEPSIZE WHICH MEETS STABILITY CRITERION OF THE DISPERSION TERM
 =  4.025    (WHEN MIN. R.F.=1)  AT K=  17, I=   1, J=  90
     1 CALLS TO GCG PACKAGE FOR TRANSPORT TIME STEP 145 IN FLOW TIME STEP   1 STRESS PERIOD   1
     8 TOTAL ITERATIONS
  MAXIMUM CONCENTRATION CHANGES FOR EACH ITERATION:
  MAX. CHANGE LAYER,ROW,COL MAX. CHANGE LAYER,ROW,COL MAX. CHANGE LAYER,ROW,COL MAX. CHANGE LAYER,ROW,COL MAX. CHANGE LAYER,ROW,COL
 ------------------------------------------------------------------------------------------------------------------------------------
   0.5274E-01 ( 20,  1, 87)  0.4274E-02 ( 19,  1, 89)  0.2115E-02 ( 17,  1, 86)  0.4702E-03 ( 20,  1, 89)  0.9362E-04 ( 16,  1, 89)
   0.2033E-04 ( 20,  1, 89)  0.1950E-04 ( 16,  1, 90)  0.7484E-06 ( 17,  1, 90)
     1 CALLS TO GCG PACKAGE FOR TRANSPORT TIME STEP 145 IN FLOW TIME STEP   1 STRESS PERIOD   1
     9 TOTAL ITERATIONS
  MAXIMUM CONCENTRATION CHANGES FOR EACH ITERATION:
  MAX. CHANGE LAYER,ROW,COL MAX. CHANGE LAYER,ROW,COL MAX. CHANGE LAYER,ROW,COL MAX. CHANGE LAYER,ROW,COL MAX. CHANGE LAYER,ROW,COL
 ------------------------------------------------------------------------------------------------------------------------------------
   0.6368E-01 ( 20,  1, 87)  0.6793E-02 ( 20,  1, 87)  0.1136E-02 ( 19,  1, 89)  0.2409E-02 ( 23,  1, 87)  0.4436E-04 ( 16,  1, 89)
   0.3058E-04 ( 16,  1, 89)  0.1613E-04 ( 16,  1, 89)  0.1074E-05 ( 23,  1, 86)  0.1634E-06 ( 23,  1, 85)
 
 SOLVING FOR HEAD 


     2 CALLS TO PCG ROUTINE FOR TIME STEP   1 IN STRESS PERIOD    1
    10 TOTAL ITERATIONS

 MAXIMUM HEAD CHANGE FOR EACH ITERATION (1 INDICATES THE FIRST INNER ITERATION):

    HEAD CHANGE    HEAD CHANGE    HEAD CHANGE    HEAD CHANGE    HEAD CHANGE 
   LAYER,ROW,COL  LAYER,ROW,COL  LAYER,ROW,COL  LAYER,ROW,COL  LAYER,ROW,COL
 ---------------------------------------------------------------------------
  1 -0.1339E-01  0  0.3720E-02  0  0.2360E-02  0  0.8666E-02  0 -0.9102E-02
   ( 15,  1, 86)  ( 17,  1, 89)  (  7,  1, 12)  (  7,  1, 48)  (  8,  1, 48)
  0 -0.1792E-02  0  0.1453E-02  0  0.1022E-02  0 -0.7668E-03  1 -0.2402E-03
   ( 11,  1, 54)  ( 11,  1, 54)  ( 11,  1, 70)  ( 11,  1, 66)  ( 11,  1, 49)

 MAXIMUM RESIDUAL FOR EACH ITERATION (1 INDICATES THE FIRST INNER ITERATION):

    RESIDUAL       RESIDUAL       RESIDUAL       RESIDUAL       RESIDUAL    
   LAYER,ROW,COL  LAYER,ROW,COL  LAYER,ROW,COL  LAYER,ROW,COL  LAYER,ROW,COL
 ---------------------------------------------------------------------------
  1 -0.1317E+06  0  0.9268E+05  0  0.9043E+05  0  0.3538E+05  0   6189.    
   ( 21,  1, 89)  ( 19,  1, 89)  ( 19,  1, 89)  ( 19,  1, 89)  ( 17,  1, 87)
  0  -2829.      0  -2515.      0  -959.0      0  -387.8      1  -343.3    
   ( 22,  1, 87)  ( 22,  1, 87)  ( 22,  1, 87)  ( 22,  1, 87)  ( 22,  1, 87)


 FLOW MODEL IS TRANSIENT
 FLOW MODEL CONTAINS CONSTANT-HEAD CELLS


 MAXIMUM STEPSIZE DURING WHICH ANY PARTICLE CANNOT MOVE MORE THAN ONE CELL
 =  13.20    (WHEN MIN. R.F.=1)  AT K=  17, I=   1, J=  90

 MAXIMUM STEPSIZE WHICH MEETS STABILITY CRITERION OF THE ADVECTION TERM
 (FOR PURE FINITE-DIFFERENCE OPTION, MIXELM=0) 
 =  7.996    (WHEN MIN. R.F.=1)  AT K=  16, I=   1, J=  90


 TOTAL NUMBER OF POINT SOURCES/SINKS PRESENT IN THE FLOW MODEL =    30

 MAXIMUM STEPSIZE WHICH MEETS STABILITY CRITERION OF THE SINK & SOURCE TERM
 =  12.17    (WHEN MIN. R.F.=1)  AT K=  17, I=   1, J=  91

 MAXIMUM STEPSIZE WHICH MEETS STABILITY CRITERION OF THE DISPERSION TERM
 =  4.363    (WHEN MIN. R.F.=1)  AT K=  17, I=   1, J=  90
     1 CALLS TO GCG PACKAGE FOR TRANSPORT TIME STEP 146 IN FLOW TIME STEP   1 STRESS PERIOD   1
     9 TOTAL ITERATIONS
     1 CALLS TO GCG PACKAGE FOR TRANSPORT TIME STEP 146 IN FLOW TIME STEP   1 STRESS PERIOD   1
     9 TOTAL ITERATIONS
 
 SOLVING FOR HEAD 


     2 CALLS TO PCG ROUTINE FOR TIME STEP   1 IN STRESS PERIOD    1
     9 TOTAL ITERATIONS

 MAXIMUM HEAD CHANGE FOR EACH ITERATION (1 INDICATES THE FIRST INNER ITERATION):

    HEAD CHANGE    HEAD CHANGE    HEAD CHANGE    HEAD CHANGE    HEAD CHANGE 
   LAYER,ROW,COL  LAYER,ROW,COL  LAYER,ROW,COL  LAYER,ROW,COL  LAYER,ROW,COL
 ---------------------------------------------------------------------------
  1  0.1344E-01  0 -0.3626E-02  0 -0.2299E-02  0  0.5610E-02  0 -0.7321E-02
   ( 15,  1, 86)  ( 17,  1, 89)  (  8,  1, 12)  ( 11,  1, 49)  ( 11,  1, 49)
  0  0.2470E-02  0 -0.1008E-02  0 -0.6217E-03  1  0.4534E-03
   ( 11,  1, 49)  ( 11,  1, 54)  ( 11,  1, 61)  ( 11,  1, 65)

 MAXIMUM RESIDUAL FOR EACH ITERATION (1 INDICATES THE FIRST INNER ITERATION):

    RESIDUAL       RESIDUAL       RESIDUAL       RESIDUAL       RESIDUAL    
   LAYER,ROW,COL  LAYER,ROW,COL  LAYER,ROW,COL  LAYER,ROW,COL  LAYER,ROW,COL
 ---------------------------------------------------------------------------
  1  0.1318E+06  0 -0.9170E+05  0 -0.9002E+05  0 -0.1344E+05  0  -4063.    
   ( 21,  1, 89)  ( 19,  1, 89)  ( 19,  1, 89)  ( 17,  1, 87)  ( 17,  1, 87)
  0   2901.      0   2307.      0   770.6      1   667.6    
   ( 22,  1, 87)  ( 22,  1, 87)  ( 22,  1, 87)  ( 22,  1, 87)


 FLOW MODEL IS TRANSIENT
 FLOW MODEL CONTAINS CONSTANT-HEAD CELLS


 MAXIMUM STEPSIZE DURING WHICH ANY PARTICLE CANNOT MOVE MORE THAN ONE CELL
 =  12.85    (WHEN MIN. R.F.=1)  AT K=  17, I=   1, J=  90

 MAXIMUM STEPSIZE WHICH MEETS STABILITY CRITERION OF THE ADVECTION TERM
 (FOR PURE FINITE-DIFFERENCE OPTION, MIXELM=0) 
 =  8.026    (WHEN MIN. R.F.=1)  AT K=  16, I=   1, J=  90


 TOTAL NUMBER OF POINT SOURCES/SINKS PRESENT IN THE FLOW MODEL =    30

 MAXIMUM STEPSIZE WHICH MEETS STABILITY CRITERION OF THE SINK & SOURCE TERM
 =  12.19    (WHEN MIN. R.F.=1)  AT K=  17, I=   1, J=  91

 MAXIMUM STEPSIZE WHICH MEETS STABILITY CRITERION OF THE DISPERSION TERM
 =  4.029    (WHEN MIN. R.F.=1)  AT K=  17, I=   1, J=  90
     1 CALLS TO GCG PACKAGE FOR TRANSPORT TIME STEP 147 IN FLOW TIME STEP   1 STRESS PERIOD   1
     8 TOTAL ITERATIONS
     1 CALLS TO GCG PACKAGE FOR TRANSPORT TIME STEP 147 IN FLOW TIME STEP   1 STRESS PERIOD   1
     8 TOTAL ITERATIONS
 
 SOLVING FOR HEAD 


     3 CALLS TO PCG ROUTINE FOR TIME STEP   1 IN STRESS PERIOD    1
    11 TOTAL ITERATIONS

 MAXIMUM HEAD CHANGE FOR EACH ITERATION (1 INDICATES THE FIRST INNER ITERATION):

    HEAD CHANGE    HEAD CHANGE    HEAD CHANGE    HEAD CHANGE    HEAD CHANGE 
   LAYER,ROW,COL  LAYER,ROW,COL  LAYER,ROW,COL  LAYER,ROW,COL  LAYER,ROW,COL
 ---------------------------------------------------------------------------
  1 -0.1339E-01  0  0.3574E-02  0  0.3781E-02  0 -0.8917E-02  0  0.9152E-02
   ( 15,  1, 86)  ( 17,  1, 89)  (  8,  1, 12)  (  6,  1, 44)  (  9,  1, 46)
  0 -0.2478E-02  0  0.1074E-02  0  0.8902E-03  1 -0.1015E-02  0 -0.2811E-03
   ( 11,  1, 70)  ( 11,  1, 69)  ( 11,  1, 70)  ( 11,  1, 70)  ( 11,  1, 65)
  1  0.1203E-03
   ( 11,  1, 70)

 MAXIMUM RESIDUAL FOR EACH ITERATION (1 INDICATES THE FIRST INNER ITERATION):

    RESIDUAL       RESIDUAL       RESIDUAL       RESIDUAL       RESIDUAL    
   LAYER,ROW,COL  LAYER,ROW,COL  LAYER,ROW,COL  LAYER,ROW,COL  LAYER,ROW,COL
 ---------------------------------------------------------------------------
  1 -0.1325E+06  0  0.9311E+05  0  0.8502E+05  0  0.3894E+05  0   6128.    
   ( 21,  1, 89)  ( 19,  1, 89)  ( 19,  1, 89)  ( 19,  1, 89)  ( 17,  1, 87)
  0  -2832.      0  -2501.      0  -955.3      1  -786.0      0  -632.2    
   ( 22,  1, 87)  ( 22,  1, 87)  ( 22,  1, 87)  ( 22,  1, 87)  ( 22,  1, 87)
  1  -589.2    
   ( 22,  1, 87)


 FLOW MODEL IS TRANSIENT
 FLOW MODEL CONTAINS CONSTANT-HEAD CELLS


 MAXIMUM STEPSIZE DURING WHICH ANY PARTICLE CANNOT MOVE MORE THAN ONE CELL
 =  13.19    (WHEN MIN. R.F.=1)  AT K=  17, I=   1, J=  90

 MAXIMUM STEPSIZE WHICH MEETS STABILITY CRITERION OF THE ADVECTION TERM
 (FOR PURE FINITE-DIFFERENCE OPTION, MIXELM=0) 
 =  7.995    (WHEN MIN. R.F.=1)  AT K=  16, I=   1, J=  90


 TOTAL NUMBER OF POINT SOURCES/SINKS PRESENT IN THE FLOW MODEL =    30

 MAXIMUM STEPSIZE WHICH MEETS STABILITY CRITERION OF THE SINK & SOURCE TERM
 =  12.16    (WHEN MIN. R.F.=1)  AT K=  17, I=   1, J=  91

 MAXIMUM STEPSIZE WHICH MEETS STABILITY CRITERION OF THE DISPERSION TERM
 =  4.352    (WHEN MIN. R.F.=1)  AT K=  17, I=   1, J=  90
     1 CALLS TO GCG PACKAGE FOR TRANSPORT TIME STEP 148 IN FLOW TIME STEP   1 STRESS PERIOD   1
     9 TOTAL ITERATIONS
     1 CALLS TO GCG PACKAGE FOR TRANSPORT TIME STEP 148 IN FLOW TIME STEP   1 STRESS PERIOD   1
     9 TOTAL ITERATIONS
 
 SOLVING FOR HEAD 


     2 CALLS TO PCG ROUTINE FOR TIME STEP   1 IN STRESS PERIOD    1
    10 TOTAL ITERATIONS

 MAXIMUM HEAD CHANGE FOR EACH ITERATION (1 INDICATES THE FIRST INNER ITERATION):

    HEAD CHANGE    HEAD CHANGE    HEAD CHANGE    HEAD CHANGE    HEAD CHANGE 
   LAYER,ROW,COL  LAYER,ROW,COL  LAYER,ROW,COL  LAYER,ROW,COL  LAYER,ROW,COL
 ---------------------------------------------------------------------------
  1  0.1359E-01  0 -0.2009E-01  0  0.1750E-01  0 -0.2251E-02  0  0.2569E-02
   ( 15,  1, 86)  (  8,  1, 12)  (  8,  1, 12)  ( 15,  1, 87)  (  9,  1, 55)
  0 -0.1503E-02  0 -0.1341E-02  0  0.1215E-02  0  0.3129E-03  1 -0.2530E-03
   ( 11,  1, 70)  ( 11,  1, 70)  ( 11,  1, 70)  ( 11,  1, 55)  ( 11,  1, 70)

 MAXIMUM RESIDUAL FOR EACH ITERATION (1 INDICATES THE FIRST INNER ITERATION):

    RESIDUAL       RESIDUAL       RESIDUAL       RESIDUAL       RESIDUAL    
   LAYER,ROW,COL  LAYER,ROW,COL  LAYER,ROW,COL  LAYER,ROW,COL  LAYER,ROW,COL
 ---------------------------------------------------------------------------
  1  0.1309E+06  0  0.9923E+05  0 -0.9035E+05  0 -0.1173E+05  0   3208.    
   ( 21,  1, 89)  ( 21,  1, 89)  ( 19,  1, 89)  ( 17,  1, 87)  ( 22,  1, 87)
  0   2912.      0   1471.      0   563.0      0  -294.7      1   249.9    
   ( 22,  1, 87)  ( 22,  1, 87)  ( 22,  1, 87)  ( 18,  1, 90)  ( 22,  1, 87)


 FLOW MODEL IS TRANSIENT
 FLOW MODEL CONTAINS CONSTANT-HEAD CELLS


 MAXIMUM STEPSIZE DURING WHICH ANY PARTICLE CANNOT MOVE MORE THAN ONE CELL
 =  12.86    (WHEN MIN. R.F.=1)  AT K=  17, I=   1, J=  90

 MAXIMUM STEPSIZE WHICH MEETS STABILITY CRITERION OF THE ADVECTION TERM
 (FOR PURE FINITE-DIFFERENCE OPTION, MIXELM=0) 
 =  8.031    (WHEN MIN. R.F.=1)  AT K=  16, I=   1, J=  90


 TOTAL NUMBER OF POINT SOURCES/SINKS PRESENT IN THE FLOW MODEL =    30

 MAXIMUM STEPSIZE WHICH MEETS STABILITY CRITERION OF THE SINK & SOURCE TERM
 =  12.21    (WHEN MIN. R.F.=1)  AT K=  17, I=   1, J=  91

 MAXIMUM STEPSIZE WHICH MEETS STABILITY CRITERION OF THE DISPERSION TERM
 =  4.034    (WHEN MIN. R.F.=1)  AT K=  17, I=   1, J=  90
     1 CALLS TO GCG PACKAGE FOR TRANSPORT TIME STEP 149 IN FLOW TIME STEP   1 STRESS PERIOD   1
     8 TOTAL ITERATIONS
     1 CALLS TO GCG PACKAGE FOR TRANSPORT TIME STEP 149 IN FLOW TIME STEP   1 STRESS PERIOD   1
     8 TOTAL ITERATIONS
 
 SOLVING FOR HEAD 


     2 CALLS TO PCG ROUTINE FOR TIME STEP   1 IN STRESS PERIOD    1
     9 TOTAL ITERATIONS

 MAXIMUM HEAD CHANGE FOR EACH ITERATION (1 INDICATES THE FIRST INNER ITERATION):

    HEAD CHANGE    HEAD CHANGE    HEAD CHANGE    HEAD CHANGE    HEAD CHANGE 
   LAYER,ROW,COL  LAYER,ROW,COL  LAYER,ROW,COL  LAYER,ROW,COL  LAYER,ROW,COL
 ---------------------------------------------------------------------------
  1 -0.1336E-01  0  0.3491E-02  0  0.3752E-02  0  0.5471E-02  0 -0.8280E-02
   ( 15,  1, 86)  ( 17,  1, 89)  (  7,  1, 12)  ( 11,  1, 57)  ( 11,  1, 57)
  0  0.2192E-02  0  0.1975E-02  0  0.9090E-03  1 -0.6114E-03
   ( 11,  1, 55)  ( 11,  1, 70)  ( 11,  1, 65)  ( 11,  1, 70)

 MAXIMUM RESIDUAL FOR EACH ITERATION (1 INDICATES THE FIRST INNER ITERATION):

    RESIDUAL       RESIDUAL       RESIDUAL       RESIDUAL       RESIDUAL    
   LAYER,ROW,COL  LAYER,ROW,COL  LAYER,ROW,COL  LAYER,ROW,COL  LAYER,ROW,COL
 ---------------------------------------------------------------------------
  1 -0.1314E+06  0  0.9190E+05  0  0.8269E+05  0  0.1454E+05  0   4225.    
   ( 21,  1, 89)  ( 19,  1, 89)  ( 19,  1, 89)  ( 19,  1, 89)  ( 17,  1, 87)
  0  -2846.      0  -2019.      0  -687.6      1  -583.4    
   ( 22,  1, 87)  ( 22,  1, 87)  ( 22,  1, 87)  ( 22,  1, 87)


 FLOW MODEL IS TRANSIENT
 FLOW MODEL CONTAINS CONSTANT-HEAD CELLS


 MAXIMUM STEPSIZE DURING WHICH ANY PARTICLE CANNOT MOVE MORE THAN ONE CELL
 =  13.20    (WHEN MIN. R.F.=1)  AT K=  17, I=   1, J=  90

 MAXIMUM STEPSIZE WHICH MEETS STABILITY CRITERION OF THE ADVECTION TERM
 (FOR PURE FINITE-DIFFERENCE OPTION, MIXELM=0) 
 =  8.000    (WHEN MIN. R.F.=1)  AT K=  16, I=   1, J=  90


 TOTAL NUMBER OF POINT SOURCES/SINKS PRESENT IN THE FLOW MODEL =    30

 MAXIMUM STEPSIZE WHICH MEETS STABILITY CRITERION OF THE SINK & SOURCE TERM
 =  12.18    (WHEN MIN. R.F.=1)  AT K=  17, I=   1, J=  91

 MAXIMUM STEPSIZE WHICH MEETS STABILITY CRITERION OF THE DISPERSION TERM
 =  4.351    (WHEN MIN. R.F.=1)  AT K=  17, I=   1, J=  90
     1 CALLS TO GCG PACKAGE FOR TRANSPORT TIME STEP 150 IN FLOW TIME STEP   1 STRESS PERIOD   1
     9 TOTAL ITERATIONS
  MAXIMUM CONCENTRATION CHANGES FOR EACH ITERATION:
  MAX. CHANGE LAYER,ROW,COL MAX. CHANGE LAYER,ROW,COL MAX. CHANGE LAYER,ROW,COL MAX. CHANGE LAYER,ROW,COL MAX. CHANGE LAYER,ROW,COL
 ------------------------------------------------------------------------------------------------------------------------------------
   0.4956E-01 ( 20,  1, 87)  0.3307E-02 ( 19,  1, 87)  0.2241E-02 ( 18,  1, 87)  0.2178E-03 ( 16,  1, 88)  0.1400E-03 ( 16,  1, 89)
   0.3057E-04 ( 16,  1, 90)  0.2842E-05 ( 21,  1, 78)  0.2098E-05 ( 21,  1, 78)  0.6998E-06 ( 16,  1, 89)
     1 CALLS TO GCG PACKAGE FOR TRANSPORT TIME STEP 150 IN FLOW TIME STEP   1 STRESS PERIOD   1
     9 TOTAL ITERATIONS
  MAXIMUM CONCENTRATION CHANGES FOR EACH ITERATION:
  MAX. CHANGE LAYER,ROW,COL MAX. CHANGE LAYER,ROW,COL MAX. CHANGE LAYER,ROW,COL MAX. CHANGE LAYER,ROW,COL MAX. CHANGE LAYER,ROW,COL
 ------------------------------------------------------------------------------------------------------------------------------------
   0.5878E-01 ( 19,  1, 88)  0.8029E-02 ( 19,  1, 87)  0.8901E-02 ( 18,  1, 87)  0.7325E-02 ( 18,  1, 87)  0.1352E-03 ( 16,  1, 89)
   0.3848E-04 ( 17,  1, 90)  0.7625E-05 ( 17,  1, 90)  0.1513E-05 ( 17,  1, 90)  0.1360E-06 ( 23,  1, 85)



 >>>>>>>>>>>>>>>>>>>>>>>>>>>>>>>>>>>>>>>>>>>>>>>>>>>>>>>FOR COMPONENT NO. 01<<<<<<<<<<<<<<<<<<<<<<<<<<<<<<<<<<<<<<<<<<<<<<<<<<<<<<<


                                            -------------------------------------------
                                                      TRANSPORT STEP NO.  150
                                            -------------------------------------------

 TOTAL ELAPSED TIME SINCE BEGINNING OF SIMULATION =   7500.000    D   
 .....................................................................

                     CUMMULATIVE MASS BUDGETS AT END OF TRANSPORT STEP  150, TIME STEP    1, STRESS PERIOD    1
                     ------------------------------------------------------------------------------------------

                                                             IN                           OUT
                                                      ----------------             ----------------
                               CONSTANT CONCENTRATION:    0.000000                    0.000000    
                                        CONSTANT HEAD:   0.2970923E+09              -0.2969293E+09
                                                WELLS:    0.000000                    0.000000    
                                             RECHARGE:    0.000000                    0.000000    
                               1ST/0TH ORDER REACTION:    0.000000                    0.000000    
                                MASS STORAGE (SOLUTE):   0.4161722E+08              -0.4178022E+08
                            ---------------------------------------------------------------------------
                                              [TOTAL]:   0.3387098E+09 KG           -0.3387099E+09 KG  

                                                          NET (IN - OUT):   -48.18290    
                                                   DISCREPANCY (PERCENT):  -0.1422542E-04



 >>>>>>>>>>>>>>>>>>>>>>>>>>>>>>>>>>>>>>>>>>>>>>>>>>>>>>>FOR COMPONENT NO. 02<<<<<<<<<<<<<<<<<<<<<<<<<<<<<<<<<<<<<<<<<<<<<<<<<<<<<<<


                                            -------------------------------------------
                                                      TRANSPORT STEP NO.  150
                                            -------------------------------------------

 TOTAL ELAPSED TIME SINCE BEGINNING OF SIMULATION =   7500.000    D   
 .....................................................................

                     CUMMULATIVE MASS BUDGETS AT END OF TRANSPORT STEP  150, TIME STEP    1, STRESS PERIOD    1
                     ------------------------------------------------------------------------------------------

                                                             IN                           OUT
                                                      ----------------             ----------------
                               CONSTANT CONCENTRATION:    0.000000                    0.000000    
                                        CONSTANT HEAD:    0.000000                  -0.1882181E+11
                                                WELLS:    0.000000                    0.000000    
                                             RECHARGE:    0.000000                    0.000000    
                               1ST/0TH ORDER REACTION:   0.1241250E+12                0.000000    
                                MASS STORAGE (SOLUTE):   0.3435878E+10              -0.1087391E+12
                            ---------------------------------------------------------------------------
                                              [TOTAL]:   0.1275610E+12 KG           -0.1275610E+12 KG  

                                                          NET (IN - OUT):    34.01933    
                                                   DISCREPANCY (PERCENT):   0.2666908E-07
 
 SOLVING FOR HEAD 


     2 CALLS TO PCG ROUTINE FOR TIME STEP   1 IN STRESS PERIOD    1
     9 TOTAL ITERATIONS

 MAXIMUM HEAD CHANGE FOR EACH ITERATION (1 INDICATES THE FIRST INNER ITERATION):

    HEAD CHANGE    HEAD CHANGE    HEAD CHANGE    HEAD CHANGE    HEAD CHANGE 
   LAYER,ROW,COL  LAYER,ROW,COL  LAYER,ROW,COL  LAYER,ROW,COL  LAYER,ROW,COL
 ---------------------------------------------------------------------------
  1  0.1345E-01  0 -0.3461E-02  0 -0.2354E-02  0 -0.6750E-02  0  0.7194E-02
   ( 15,  1, 86)  ( 17,  1, 89)  (  8,  1, 12)  ( 11,  1, 35)  ( 11,  1, 35)
  0  0.1590E-02  0 -0.1173E-02  0 -0.7893E-03  1  0.7888E-03
   (  9,  1, 53)  ( 11,  1, 58)  ( 11,  1, 70)  ( 11,  1, 70)

 MAXIMUM RESIDUAL FOR EACH ITERATION (1 INDICATES THE FIRST INNER ITERATION):

    RESIDUAL       RESIDUAL       RESIDUAL       RESIDUAL       RESIDUAL    
   LAYER,ROW,COL  LAYER,ROW,COL  LAYER,ROW,COL  LAYER,ROW,COL  LAYER,ROW,COL
 ---------------------------------------------------------------------------
  1  0.1301E+06  0 -0.9042E+05  0 -0.8897E+05  0 -0.2342E+05  0  -5547.    
   ( 21,  1, 89)  ( 19,  1, 89)  ( 19,  1, 89)  ( 19,  1, 89)  ( 17,  1, 87)
  0   2907.      0   2615.      0   897.1      1   780.4    
   ( 22,  1, 87)  ( 22,  1, 87)  ( 22,  1, 87)  ( 22,  1, 87)


 FLOW MODEL IS TRANSIENT
 FLOW MODEL CONTAINS CONSTANT-HEAD CELLS


 MAXIMUM STEPSIZE DURING WHICH ANY PARTICLE CANNOT MOVE MORE THAN ONE CELL
 =  12.86    (WHEN MIN. R.F.=1)  AT K=  17, I=   1, J=  90

 MAXIMUM STEPSIZE WHICH MEETS STABILITY CRITERION OF THE ADVECTION TERM
 (FOR PURE FINITE-DIFFERENCE OPTION, MIXELM=0) 
 =  8.030    (WHEN MIN. R.F.=1)  AT K=  16, I=   1, J=  90


 TOTAL NUMBER OF POINT SOURCES/SINKS PRESENT IN THE FLOW MODEL =    30

 MAXIMUM STEPSIZE WHICH MEETS STABILITY CRITERION OF THE SINK & SOURCE TERM
 =  12.20    (WHEN MIN. R.F.=1)  AT K=  17, I=   1, J=  91

 MAXIMUM STEPSIZE WHICH MEETS STABILITY CRITERION OF THE DISPERSION TERM
 =  4.036    (WHEN MIN. R.F.=1)  AT K=  17, I=   1, J=  90
     1 CALLS TO GCG PACKAGE FOR TRANSPORT TIME STEP 151 IN FLOW TIME STEP   1 STRESS PERIOD   1
     8 TOTAL ITERATIONS
     1 CALLS TO GCG PACKAGE FOR TRANSPORT TIME STEP 151 IN FLOW TIME STEP   1 STRESS PERIOD   1
     8 TOTAL ITERATIONS
 
 SOLVING FOR HEAD 


     2 CALLS TO PCG ROUTINE FOR TIME STEP   1 IN STRESS PERIOD    1
     8 TOTAL ITERATIONS

 MAXIMUM HEAD CHANGE FOR EACH ITERATION (1 INDICATES THE FIRST INNER ITERATION):

    HEAD CHANGE    HEAD CHANGE    HEAD CHANGE    HEAD CHANGE    HEAD CHANGE 
   LAYER,ROW,COL  LAYER,ROW,COL  LAYER,ROW,COL  LAYER,ROW,COL  LAYER,ROW,COL
 ---------------------------------------------------------------------------
  1 -0.1345E-01  0  0.3577E-02  0  0.2868E-02  0  0.9657E-02  0  0.1061E-01
   ( 15,  1, 86)  ( 17,  1, 89)  (  8,  1, 12)  ( 11,  1, 63)  ( 11,  1, 49)
  0 -0.2603E-02  0  0.7713E-03  1  0.7377E-03
   ( 11,  1, 51)  ( 11,  1, 53)  ( 11,  1, 70)

 MAXIMUM RESIDUAL FOR EACH ITERATION (1 INDICATES THE FIRST INNER ITERATION):

    RESIDUAL       RESIDUAL       RESIDUAL       RESIDUAL       RESIDUAL    
   LAYER,ROW,COL  LAYER,ROW,COL  LAYER,ROW,COL  LAYER,ROW,COL  LAYER,ROW,COL
 ---------------------------------------------------------------------------
  1 -0.1314E+06  0  0.9228E+05  0  0.8791E+05  0  0.2217E+05  0   5014.    
   ( 21,  1, 89)  ( 19,  1, 89)  ( 19,  1, 89)  ( 19,  1, 89)  ( 17,  1, 87)
  0  -2856.      0  -2555.      1  -2081.    
   ( 22,  1, 87)  ( 22,  1, 87)  ( 22,  1, 87)


 FLOW MODEL IS TRANSIENT
 FLOW MODEL CONTAINS CONSTANT-HEAD CELLS


 MAXIMUM STEPSIZE DURING WHICH ANY PARTICLE CANNOT MOVE MORE THAN ONE CELL
 =  13.20    (WHEN MIN. R.F.=1)  AT K=  17, I=   1, J=  90

 MAXIMUM STEPSIZE WHICH MEETS STABILITY CRITERION OF THE ADVECTION TERM
 (FOR PURE FINITE-DIFFERENCE OPTION, MIXELM=0) 
 =  7.998    (WHEN MIN. R.F.=1)  AT K=  16, I=   1, J=  90


 TOTAL NUMBER OF POINT SOURCES/SINKS PRESENT IN THE FLOW MODEL =    30

 MAXIMUM STEPSIZE WHICH MEETS STABILITY CRITERION OF THE SINK & SOURCE TERM
 =  12.16    (WHEN MIN. R.F.=1)  AT K=  17, I=   1, J=  91

 MAXIMUM STEPSIZE WHICH MEETS STABILITY CRITERION OF THE DISPERSION TERM
 =  4.344    (WHEN MIN. R.F.=1)  AT K=  17, I=   1, J=  90
     1 CALLS TO GCG PACKAGE FOR TRANSPORT TIME STEP 152 IN FLOW TIME STEP   1 STRESS PERIOD   1
     8 TOTAL ITERATIONS
     1 CALLS TO GCG PACKAGE FOR TRANSPORT TIME STEP 152 IN FLOW TIME STEP   1 STRESS PERIOD   1
     9 TOTAL ITERATIONS
 
 SOLVING FOR HEAD 


     2 CALLS TO PCG ROUTINE FOR TIME STEP   1 IN STRESS PERIOD    1
     9 TOTAL ITERATIONS

 MAXIMUM HEAD CHANGE FOR EACH ITERATION (1 INDICATES THE FIRST INNER ITERATION):

    HEAD CHANGE    HEAD CHANGE    HEAD CHANGE    HEAD CHANGE    HEAD CHANGE 
   LAYER,ROW,COL  LAYER,ROW,COL  LAYER,ROW,COL  LAYER,ROW,COL  LAYER,ROW,COL
 ---------------------------------------------------------------------------
  1  0.1387E-01  0  0.7131E-02  0 -0.3975E-02  0 -0.8672E-02  0  0.6219E-02
   ( 15,  1, 86)  (  7,  1, 42)  (  7,  1, 12)  ( 11,  1, 69)  (  9,  1, 50)
  0 -0.4838E-02  0 -0.1500E-02  0 -0.9499E-03  1  0.7411E-03
   ( 11,  1, 63)  ( 11,  1, 70)  ( 11,  1, 59)  ( 11,  1, 59)

 MAXIMUM RESIDUAL FOR EACH ITERATION (1 INDICATES THE FIRST INNER ITERATION):

    RESIDUAL       RESIDUAL       RESIDUAL       RESIDUAL       RESIDUAL    
   LAYER,ROW,COL  LAYER,ROW,COL  LAYER,ROW,COL  LAYER,ROW,COL  LAYER,ROW,COL
 ---------------------------------------------------------------------------
  1  0.1323E+06  0 -0.9379E+05  0 -0.9302E+05  0 -0.7521E+05  0  -6130.    
   ( 21,  1, 89)  ( 19,  1, 89)  ( 19,  1, 89)  ( 19,  1, 89)  ( 17,  1, 87)
  0   2800.      0   2628.      0   1487.      1   1314.    
   ( 17,  1, 88)  ( 22,  1, 87)  ( 22,  1, 87)  ( 22,  1, 87)


 FLOW MODEL IS TRANSIENT
 FLOW MODEL CONTAINS CONSTANT-HEAD CELLS


 MAXIMUM STEPSIZE DURING WHICH ANY PARTICLE CANNOT MOVE MORE THAN ONE CELL
 =  12.90    (WHEN MIN. R.F.=1)  AT K=  17, I=   1, J=  90

 MAXIMUM STEPSIZE WHICH MEETS STABILITY CRITERION OF THE ADVECTION TERM
 (FOR PURE FINITE-DIFFERENCE OPTION, MIXELM=0) 
 =  8.052    (WHEN MIN. R.F.=1)  AT K=  16, I=   1, J=  90


 TOTAL NUMBER OF POINT SOURCES/SINKS PRESENT IN THE FLOW MODEL =    30

 MAXIMUM STEPSIZE WHICH MEETS STABILITY CRITERION OF THE SINK & SOURCE TERM
 =  12.27    (WHEN MIN. R.F.=1)  AT K=  17, I=   1, J=  91

 MAXIMUM STEPSIZE WHICH MEETS STABILITY CRITERION OF THE DISPERSION TERM
 =  4.046    (WHEN MIN. R.F.=1)  AT K=  17, I=   1, J=  90
     1 CALLS TO GCG PACKAGE FOR TRANSPORT TIME STEP 153 IN FLOW TIME STEP   1 STRESS PERIOD   1
     8 TOTAL ITERATIONS
     1 CALLS TO GCG PACKAGE FOR TRANSPORT TIME STEP 153 IN FLOW TIME STEP   1 STRESS PERIOD   1
     8 TOTAL ITERATIONS
 
 SOLVING FOR HEAD 


     2 CALLS TO PCG ROUTINE FOR TIME STEP   1 IN STRESS PERIOD    1
     9 TOTAL ITERATIONS

 MAXIMUM HEAD CHANGE FOR EACH ITERATION (1 INDICATES THE FIRST INNER ITERATION):

    HEAD CHANGE    HEAD CHANGE    HEAD CHANGE    HEAD CHANGE    HEAD CHANGE 
   LAYER,ROW,COL  LAYER,ROW,COL  LAYER,ROW,COL  LAYER,ROW,COL  LAYER,ROW,COL
 ---------------------------------------------------------------------------
  1 -0.1372E-01  0  0.4039E-02  0  0.3364E-02  0 -0.1092E-01  0  0.1176E-01
   ( 15,  1, 86)  ( 17,  1, 89)  (  8,  1, 12)  ( 11,  1, 58)  ( 11,  1, 58)
  0 -0.2110E-02  0  0.1294E-02  0  0.5092E-03  1 -0.3246E-03
   ( 11,  1, 58)  ( 11,  1, 64)  ( 11,  1, 46)  ( 11,  1, 70)

 MAXIMUM RESIDUAL FOR EACH ITERATION (1 INDICATES THE FIRST INNER ITERATION):

    RESIDUAL       RESIDUAL       RESIDUAL       RESIDUAL       RESIDUAL    
   LAYER,ROW,COL  LAYER,ROW,COL  LAYER,ROW,COL  LAYER,ROW,COL  LAYER,ROW,COL
 ---------------------------------------------------------------------------
  1 -0.1332E+06  0  0.9435E+05  0  0.9346E+05  0  0.1818E+05  0  -4525.    
   ( 21,  1, 89)  ( 19,  1, 89)  ( 19,  1, 89)  ( 19,  1, 89)  ( 17,  1, 88)
  0  -2899.      0  -2289.      0  -664.7      1  -582.5    
   ( 22,  1, 87)  ( 22,  1, 87)  ( 22,  1, 87)  ( 22,  1, 87)


 FLOW MODEL IS TRANSIENT
 FLOW MODEL CONTAINS CONSTANT-HEAD CELLS


 MAXIMUM STEPSIZE DURING WHICH ANY PARTICLE CANNOT MOVE MORE THAN ONE CELL
 =  13.22    (WHEN MIN. R.F.=1)  AT K=  17, I=   1, J=  90

 MAXIMUM STEPSIZE WHICH MEETS STABILITY CRITERION OF THE ADVECTION TERM
 (FOR PURE FINITE-DIFFERENCE OPTION, MIXELM=0) 
 =  8.001    (WHEN MIN. R.F.=1)  AT K=  16, I=   1, J=  90


 TOTAL NUMBER OF POINT SOURCES/SINKS PRESENT IN THE FLOW MODEL =    30

 MAXIMUM STEPSIZE WHICH MEETS STABILITY CRITERION OF THE SINK & SOURCE TERM
 =  12.18    (WHEN MIN. R.F.=1)  AT K=  17, I=   1, J=  91

 MAXIMUM STEPSIZE WHICH MEETS STABILITY CRITERION OF THE DISPERSION TERM
 =  4.364    (WHEN MIN. R.F.=1)  AT K=  17, I=   1, J=  90
     1 CALLS TO GCG PACKAGE FOR TRANSPORT TIME STEP 154 IN FLOW TIME STEP   1 STRESS PERIOD   1
     9 TOTAL ITERATIONS
     1 CALLS TO GCG PACKAGE FOR TRANSPORT TIME STEP 154 IN FLOW TIME STEP   1 STRESS PERIOD   1
     9 TOTAL ITERATIONS
 
 SOLVING FOR HEAD 


     2 CALLS TO PCG ROUTINE FOR TIME STEP   1 IN STRESS PERIOD    1
     9 TOTAL ITERATIONS

 MAXIMUM HEAD CHANGE FOR EACH ITERATION (1 INDICATES THE FIRST INNER ITERATION):

    HEAD CHANGE    HEAD CHANGE    HEAD CHANGE    HEAD CHANGE    HEAD CHANGE 
   LAYER,ROW,COL  LAYER,ROW,COL  LAYER,ROW,COL  LAYER,ROW,COL  LAYER,ROW,COL
 ---------------------------------------------------------------------------
  1  0.1332E-01  0 -0.3740E-02  0 -0.2541E-02  0 -0.8109E-02  0  0.8790E-02
   ( 15,  1, 86)  ( 17,  1, 89)  (  7,  1, 12)  (  7,  1, 47)  (  8,  1, 47)
  0  0.1264E-02  0 -0.1379E-02  0  0.7866E-03  1  0.7541E-03
   ( 11,  1, 50)  ( 11,  1, 50)  ( 11,  1, 50)  ( 11,  1, 70)

 MAXIMUM RESIDUAL FOR EACH ITERATION (1 INDICATES THE FIRST INNER ITERATION):

    RESIDUAL       RESIDUAL       RESIDUAL       RESIDUAL       RESIDUAL    
   LAYER,ROW,COL  LAYER,ROW,COL  LAYER,ROW,COL  LAYER,ROW,COL  LAYER,ROW,COL
 ---------------------------------------------------------------------------
  1  0.1345E+06  0 -0.9528E+05  0 -0.9212E+05  0 -0.3730E+05  0  -6117.    
   ( 21,  1, 89)  ( 19,  1, 89)  ( 19,  1, 89)  ( 19,  1, 89)  ( 17,  1, 87)
  0   2838.      0   2112.      0   803.4      1   669.6    
   ( 22,  1, 87)  ( 22,  1, 87)  ( 22,  1, 87)  ( 22,  1, 87)


 FLOW MODEL IS TRANSIENT
 FLOW MODEL CONTAINS CONSTANT-HEAD CELLS


 MAXIMUM STEPSIZE DURING WHICH ANY PARTICLE CANNOT MOVE MORE THAN ONE CELL
 =  12.85    (WHEN MIN. R.F.=1)  AT K=  17, I=   1, J=  90

 MAXIMUM STEPSIZE WHICH MEETS STABILITY CRITERION OF THE ADVECTION TERM
 (FOR PURE FINITE-DIFFERENCE OPTION, MIXELM=0) 
 =  8.031    (WHEN MIN. R.F.=1)  AT K=  16, I=   1, J=  90


 TOTAL NUMBER OF POINT SOURCES/SINKS PRESENT IN THE FLOW MODEL =    30

 MAXIMUM STEPSIZE WHICH MEETS STABILITY CRITERION OF THE SINK & SOURCE TERM
 =  12.20    (WHEN MIN. R.F.=1)  AT K=  17, I=   1, J=  91

 MAXIMUM STEPSIZE WHICH MEETS STABILITY CRITERION OF THE DISPERSION TERM
 =  4.024    (WHEN MIN. R.F.=1)  AT K=  17, I=   1, J=  90
     1 CALLS TO GCG PACKAGE FOR TRANSPORT TIME STEP 155 IN FLOW TIME STEP   1 STRESS PERIOD   1
     8 TOTAL ITERATIONS
  MAXIMUM CONCENTRATION CHANGES FOR EACH ITERATION:
  MAX. CHANGE LAYER,ROW,COL MAX. CHANGE LAYER,ROW,COL MAX. CHANGE LAYER,ROW,COL MAX. CHANGE LAYER,ROW,COL MAX. CHANGE LAYER,ROW,COL
 ------------------------------------------------------------------------------------------------------------------------------------
   0.5288E-01 ( 20,  1, 87)  0.4212E-02 ( 19,  1, 89)  0.2151E-02 ( 18,  1, 86)  0.4574E-03 ( 20,  1, 89)  0.9616E-04 ( 16,  1, 89)
   0.2060E-04 ( 20,  1, 89)  0.1801E-04 ( 16,  1, 90)  0.7504E-06 ( 17,  1, 90)
     1 CALLS TO GCG PACKAGE FOR TRANSPORT TIME STEP 155 IN FLOW TIME STEP   1 STRESS PERIOD   1
     9 TOTAL ITERATIONS
  MAXIMUM CONCENTRATION CHANGES FOR EACH ITERATION:
  MAX. CHANGE LAYER,ROW,COL MAX. CHANGE LAYER,ROW,COL MAX. CHANGE LAYER,ROW,COL MAX. CHANGE LAYER,ROW,COL MAX. CHANGE LAYER,ROW,COL
 ------------------------------------------------------------------------------------------------------------------------------------
   0.6379E-01 ( 20,  1, 87)  0.6512E-02 ( 19,  1, 86)  0.2286E-01 ( 23,  1, 87)  0.2148E-01 ( 23,  1, 87)  0.2423E-04 ( 16,  1, 89)
   0.5786E-04 ( 16,  1, 89)  0.1126E-04 ( 17,  1, 89)  0.1026E-05 ( 17,  1, 90)  0.1475E-06 ( 23,  1, 85)
 
 SOLVING FOR HEAD 


     2 CALLS TO PCG ROUTINE FOR TIME STEP   1 IN STRESS PERIOD    1
     9 TOTAL ITERATIONS

 MAXIMUM HEAD CHANGE FOR EACH ITERATION (1 INDICATES THE FIRST INNER ITERATION):

    HEAD CHANGE    HEAD CHANGE    HEAD CHANGE    HEAD CHANGE    HEAD CHANGE 
   LAYER,ROW,COL  LAYER,ROW,COL  LAYER,ROW,COL  LAYER,ROW,COL  LAYER,ROW,COL
 ---------------------------------------------------------------------------
  1 -0.1350E-01  0  0.3677E-02  0  0.2433E-02  0  0.1212E-01  0 -0.1249E-01
   ( 15,  1, 86)  ( 17,  1, 89)  (  8,  1, 12)  ( 11,  1, 51)  ( 11,  1, 51)
  0  0.1401E-02  0  0.1031E-02  0  0.6418E-03  1 -0.5356E-03
   ( 11,  1, 53)  ( 11,  1, 70)  ( 11,  1, 56)  ( 11,  1, 70)

 MAXIMUM RESIDUAL FOR EACH ITERATION (1 INDICATES THE FIRST INNER ITERATION):

    RESIDUAL       RESIDUAL       RESIDUAL       RESIDUAL       RESIDUAL    
   LAYER,ROW,COL  LAYER,ROW,COL  LAYER,ROW,COL  LAYER,ROW,COL  LAYER,ROW,COL
 ---------------------------------------------------------------------------
  1 -0.1312E+06  0  0.9131E+05  0  0.9002E+05  0  0.2927E+05  0   5530.    
   ( 21,  1, 89)  ( 19,  1, 89)  ( 19,  1, 89)  ( 19,  1, 89)  ( 17,  1, 87)
  0  -2874.      0  -2140.      0  -763.7      1  -653.0    
   ( 22,  1, 87)  ( 22,  1, 87)  ( 22,  1, 87)  ( 22,  1, 87)


 FLOW MODEL IS TRANSIENT
 FLOW MODEL CONTAINS CONSTANT-HEAD CELLS


 MAXIMUM STEPSIZE DURING WHICH ANY PARTICLE CANNOT MOVE MORE THAN ONE CELL
 =  13.21    (WHEN MIN. R.F.=1)  AT K=  17, I=   1, J=  90

 MAXIMUM STEPSIZE WHICH MEETS STABILITY CRITERION OF THE ADVECTION TERM
 (FOR PURE FINITE-DIFFERENCE OPTION, MIXELM=0) 
 =  8.002    (WHEN MIN. R.F.=1)  AT K=  16, I=   1, J=  90


 TOTAL NUMBER OF POINT SOURCES/SINKS PRESENT IN THE FLOW MODEL =    30

 MAXIMUM STEPSIZE WHICH MEETS STABILITY CRITERION OF THE SINK & SOURCE TERM
 =  12.17    (WHEN MIN. R.F.=1)  AT K=  17, I=   1, J=  91

 MAXIMUM STEPSIZE WHICH MEETS STABILITY CRITERION OF THE DISPERSION TERM
 =  4.359    (WHEN MIN. R.F.=1)  AT K=  17, I=   1, J=  90
     1 CALLS TO GCG PACKAGE FOR TRANSPORT TIME STEP 156 IN FLOW TIME STEP   1 STRESS PERIOD   1
     9 TOTAL ITERATIONS
     1 CALLS TO GCG PACKAGE FOR TRANSPORT TIME STEP 156 IN FLOW TIME STEP   1 STRESS PERIOD   1
     9 TOTAL ITERATIONS
 
 SOLVING FOR HEAD 


     2 CALLS TO PCG ROUTINE FOR TIME STEP   1 IN STRESS PERIOD    1
     7 TOTAL ITERATIONS

 MAXIMUM HEAD CHANGE FOR EACH ITERATION (1 INDICATES THE FIRST INNER ITERATION):

    HEAD CHANGE    HEAD CHANGE    HEAD CHANGE    HEAD CHANGE    HEAD CHANGE 
   LAYER,ROW,COL  LAYER,ROW,COL  LAYER,ROW,COL  LAYER,ROW,COL  LAYER,ROW,COL
 ---------------------------------------------------------------------------
  1  0.1346E-01  0 -0.3655E-02  0 -0.2521E-02  0 -0.8273E-02  0  0.8751E-02
   ( 15,  1, 86)  ( 17,  1, 89)  (  7,  1, 12)  ( 10,  1, 50)  ( 10,  1, 50)
  0  0.9968E-03  1 -0.9187E-03
   ( 11,  1, 39)  ( 11,  1, 53)

 MAXIMUM RESIDUAL FOR EACH ITERATION (1 INDICATES THE FIRST INNER ITERATION):

    RESIDUAL       RESIDUAL       RESIDUAL       RESIDUAL       RESIDUAL    
   LAYER,ROW,COL  LAYER,ROW,COL  LAYER,ROW,COL  LAYER,ROW,COL  LAYER,ROW,COL
 ---------------------------------------------------------------------------
  1  0.1309E+06  0 -0.9163E+05  0 -0.8841E+05  0 -0.4028E+05  0  -6028.    
   ( 21,  1, 89)  ( 19,  1, 89)  ( 19,  1, 89)  ( 19,  1, 89)  ( 17,  1, 87)
  0   2910.      1   2350.    
   ( 22,  1, 87)  ( 22,  1, 87)


 FLOW MODEL IS TRANSIENT
 FLOW MODEL CONTAINS CONSTANT-HEAD CELLS


 MAXIMUM STEPSIZE DURING WHICH ANY PARTICLE CANNOT MOVE MORE THAN ONE CELL
 =  12.85    (WHEN MIN. R.F.=1)  AT K=  17, I=   1, J=  90

 MAXIMUM STEPSIZE WHICH MEETS STABILITY CRITERION OF THE ADVECTION TERM
 (FOR PURE FINITE-DIFFERENCE OPTION, MIXELM=0) 
 =  8.028    (WHEN MIN. R.F.=1)  AT K=  16, I=   1, J=  90


 TOTAL NUMBER OF POINT SOURCES/SINKS PRESENT IN THE FLOW MODEL =    30

 MAXIMUM STEPSIZE WHICH MEETS STABILITY CRITERION OF THE SINK & SOURCE TERM
 =  12.20    (WHEN MIN. R.F.=1)  AT K=  17, I=   1, J=  91

 MAXIMUM STEPSIZE WHICH MEETS STABILITY CRITERION OF THE DISPERSION TERM
 =  4.028    (WHEN MIN. R.F.=1)  AT K=  17, I=   1, J=  90
     1 CALLS TO GCG PACKAGE FOR TRANSPORT TIME STEP 157 IN FLOW TIME STEP   1 STRESS PERIOD   1
     8 TOTAL ITERATIONS
     1 CALLS TO GCG PACKAGE FOR TRANSPORT TIME STEP 157 IN FLOW TIME STEP   1 STRESS PERIOD   1
     9 TOTAL ITERATIONS
 
 SOLVING FOR HEAD 


     2 CALLS TO PCG ROUTINE FOR TIME STEP   1 IN STRESS PERIOD    1
     9 TOTAL ITERATIONS

 MAXIMUM HEAD CHANGE FOR EACH ITERATION (1 INDICATES THE FIRST INNER ITERATION):

    HEAD CHANGE    HEAD CHANGE    HEAD CHANGE    HEAD CHANGE    HEAD CHANGE 
   LAYER,ROW,COL  LAYER,ROW,COL  LAYER,ROW,COL  LAYER,ROW,COL  LAYER,ROW,COL
 ---------------------------------------------------------------------------
  1 -0.1379E-01  0  0.9748E-02  0  0.4261E-02  0 -0.1506E-01  0 -0.1092E-01
   ( 15,  1, 86)  ( 11,  1, 62)  (  8,  1, 12)  ( 11,  1, 62)  ( 11,  1, 53)
  0  0.3877E-02  0  0.1364E-02  0  0.6440E-03  1 -0.5194E-03
   ( 11,  1, 49)  ( 11,  1, 68)  ( 11,  1, 39)  ( 11,  1, 39)

 MAXIMUM RESIDUAL FOR EACH ITERATION (1 INDICATES THE FIRST INNER ITERATION):

    RESIDUAL       RESIDUAL       RESIDUAL       RESIDUAL       RESIDUAL    
   LAYER,ROW,COL  LAYER,ROW,COL  LAYER,ROW,COL  LAYER,ROW,COL  LAYER,ROW,COL
 ---------------------------------------------------------------------------
  1 -0.1353E+06  0  0.9559E+05  0  0.9486E+05  0  0.7071E+05  0   5753.    
   ( 21,  1, 89)  ( 19,  1, 89)  ( 19,  1, 89)  ( 19,  1, 89)  ( 17,  1, 87)
  0  -2891.      0  -2595.      0  -1825.      1  -1622.    
   ( 17,  1, 88)  ( 22,  1, 87)  ( 22,  1, 87)  ( 22,  1, 87)


 FLOW MODEL IS TRANSIENT
 FLOW MODEL CONTAINS CONSTANT-HEAD CELLS


 MAXIMUM STEPSIZE DURING WHICH ANY PARTICLE CANNOT MOVE MORE THAN ONE CELL
 =  13.14    (WHEN MIN. R.F.=1)  AT K=  17, I=   1, J=  90

 MAXIMUM STEPSIZE WHICH MEETS STABILITY CRITERION OF THE ADVECTION TERM
 (FOR PURE FINITE-DIFFERENCE OPTION, MIXELM=0) 
 =  7.971    (WHEN MIN. R.F.=1)  AT K=  16, I=   1, J=  90


 TOTAL NUMBER OF POINT SOURCES/SINKS PRESENT IN THE FLOW MODEL =    30

 MAXIMUM STEPSIZE WHICH MEETS STABILITY CRITERION OF THE SINK & SOURCE TERM
 =  12.07    (WHEN MIN. R.F.=1)  AT K=  17, I=   1, J=  91

 MAXIMUM STEPSIZE WHICH MEETS STABILITY CRITERION OF THE DISPERSION TERM
 =  4.326    (WHEN MIN. R.F.=1)  AT K=  17, I=   1, J=  90
     1 CALLS TO GCG PACKAGE FOR TRANSPORT TIME STEP 158 IN FLOW TIME STEP   1 STRESS PERIOD   1
     8 TOTAL ITERATIONS
     1 CALLS TO GCG PACKAGE FOR TRANSPORT TIME STEP 158 IN FLOW TIME STEP   1 STRESS PERIOD   1
     9 TOTAL ITERATIONS
 
 SOLVING FOR HEAD 


     2 CALLS TO PCG ROUTINE FOR TIME STEP   1 IN STRESS PERIOD    1
     9 TOTAL ITERATIONS

 MAXIMUM HEAD CHANGE FOR EACH ITERATION (1 INDICATES THE FIRST INNER ITERATION):

    HEAD CHANGE    HEAD CHANGE    HEAD CHANGE    HEAD CHANGE    HEAD CHANGE 
   LAYER,ROW,COL  LAYER,ROW,COL  LAYER,ROW,COL  LAYER,ROW,COL  LAYER,ROW,COL
 ---------------------------------------------------------------------------
  1  0.1391E-01  0 -0.4255E-02  0 -0.4108E-02  0 -0.1026E-01  0  0.9525E-02
   ( 15,  1, 86)  ( 17,  1, 89)  (  8,  1, 12)  (  8,  1, 44)  (  7,  1, 44)
  0  0.2107E-02  0 -0.1396E-02  0 -0.5228E-03  1  0.4403E-03
   ( 11,  1, 49)  ( 11,  1, 49)  ( 11,  1, 62)  ( 11,  1, 70)

 MAXIMUM RESIDUAL FOR EACH ITERATION (1 INDICATES THE FIRST INNER ITERATION):

    RESIDUAL       RESIDUAL       RESIDUAL       RESIDUAL       RESIDUAL    
   LAYER,ROW,COL  LAYER,ROW,COL  LAYER,ROW,COL  LAYER,ROW,COL  LAYER,ROW,COL
 ---------------------------------------------------------------------------
  1  0.1342E+06  0 -0.9590E+05  0 -0.9516E+05  0 -0.4477E+05  0   5878.    
   ( 21,  1, 89)  ( 19,  1, 89)  ( 19,  1, 89)  ( 19,  1, 89)  ( 17,  1, 88)
  0   2777.      0   2508.      0   828.9      1   712.3    
   ( 22,  1, 87)  ( 22,  1, 87)  ( 22,  1, 87)  ( 22,  1, 87)


 FLOW MODEL IS TRANSIENT
 FLOW MODEL CONTAINS CONSTANT-HEAD CELLS


 MAXIMUM STEPSIZE DURING WHICH ANY PARTICLE CANNOT MOVE MORE THAN ONE CELL
 =  12.85    (WHEN MIN. R.F.=1)  AT K=  17, I=   1, J=  90

 MAXIMUM STEPSIZE WHICH MEETS STABILITY CRITERION OF THE ADVECTION TERM
 (FOR PURE FINITE-DIFFERENCE OPTION, MIXELM=0) 
 =  8.036    (WHEN MIN. R.F.=1)  AT K=  16, I=   1, J=  90


 TOTAL NUMBER OF POINT SOURCES/SINKS PRESENT IN THE FLOW MODEL =    30

 MAXIMUM STEPSIZE WHICH MEETS STABILITY CRITERION OF THE SINK & SOURCE TERM
 =  12.19    (WHEN MIN. R.F.=1)  AT K=  17, I=   1, J=  91

 MAXIMUM STEPSIZE WHICH MEETS STABILITY CRITERION OF THE DISPERSION TERM
 =  4.024    (WHEN MIN. R.F.=1)  AT K=  17, I=   1, J=  90
     1 CALLS TO GCG PACKAGE FOR TRANSPORT TIME STEP 159 IN FLOW TIME STEP   1 STRESS PERIOD   1
     8 TOTAL ITERATIONS
     1 CALLS TO GCG PACKAGE FOR TRANSPORT TIME STEP 159 IN FLOW TIME STEP   1 STRESS PERIOD   1
     8 TOTAL ITERATIONS
 
 SOLVING FOR HEAD 


     2 CALLS TO PCG ROUTINE FOR TIME STEP   1 IN STRESS PERIOD    1
     9 TOTAL ITERATIONS

 MAXIMUM HEAD CHANGE FOR EACH ITERATION (1 INDICATES THE FIRST INNER ITERATION):

    HEAD CHANGE    HEAD CHANGE    HEAD CHANGE    HEAD CHANGE    HEAD CHANGE 
   LAYER,ROW,COL  LAYER,ROW,COL  LAYER,ROW,COL  LAYER,ROW,COL  LAYER,ROW,COL
 ---------------------------------------------------------------------------
  1 -0.1346E-01  0  0.3799E-02  0  0.2817E-02  0  0.1413E-01  0 -0.1454E-01
   ( 15,  1, 86)  ( 17,  1, 89)  (  8,  1, 12)  ( 11,  1, 55)  ( 11,  1, 55)
  0  0.1825E-02  0 -0.1040E-02  0  0.7141E-03  1 -0.3439E-03
   ( 11,  1, 50)  ( 11,  1, 49)  ( 11,  1, 49)  ( 11,  1, 40)

 MAXIMUM RESIDUAL FOR EACH ITERATION (1 INDICATES THE FIRST INNER ITERATION):

    RESIDUAL       RESIDUAL       RESIDUAL       RESIDUAL       RESIDUAL    
   LAYER,ROW,COL  LAYER,ROW,COL  LAYER,ROW,COL  LAYER,ROW,COL  LAYER,ROW,COL
 ---------------------------------------------------------------------------
  1 -0.1299E+06  0  0.9114E+05  0  0.9013E+05  0  0.2616E+05  0   5439.    
   ( 21,  1, 89)  ( 19,  1, 89)  ( 19,  1, 89)  ( 19,  1, 89)  ( 17,  1, 87)
  0  -2875.      0  -2502.      0  -828.1      1  -733.5    
   ( 22,  1, 87)  ( 22,  1, 87)  ( 22,  1, 87)  ( 22,  1, 87)


 FLOW MODEL IS TRANSIENT
 FLOW MODEL CONTAINS CONSTANT-HEAD CELLS


 MAXIMUM STEPSIZE DURING WHICH ANY PARTICLE CANNOT MOVE MORE THAN ONE CELL
 =  13.24    (WHEN MIN. R.F.=1)  AT K=  17, I=   1, J=  90

 MAXIMUM STEPSIZE WHICH MEETS STABILITY CRITERION OF THE ADVECTION TERM
 (FOR PURE FINITE-DIFFERENCE OPTION, MIXELM=0) 
 =  8.009    (WHEN MIN. R.F.=1)  AT K=  16, I=   1, J=  90


 TOTAL NUMBER OF POINT SOURCES/SINKS PRESENT IN THE FLOW MODEL =    30

 MAXIMUM STEPSIZE WHICH MEETS STABILITY CRITERION OF THE SINK & SOURCE TERM
 =  12.18    (WHEN MIN. R.F.=1)  AT K=  17, I=   1, J=  91

 MAXIMUM STEPSIZE WHICH MEETS STABILITY CRITERION OF THE DISPERSION TERM
 =  4.377    (WHEN MIN. R.F.=1)  AT K=  17, I=   1, J=  90
     1 CALLS TO GCG PACKAGE FOR TRANSPORT TIME STEP 160 IN FLOW TIME STEP   1 STRESS PERIOD   1
     9 TOTAL ITERATIONS
  MAXIMUM CONCENTRATION CHANGES FOR EACH ITERATION:
  MAX. CHANGE LAYER,ROW,COL MAX. CHANGE LAYER,ROW,COL MAX. CHANGE LAYER,ROW,COL MAX. CHANGE LAYER,ROW,COL MAX. CHANGE LAYER,ROW,COL
 ------------------------------------------------------------------------------------------------------------------------------------
   0.4920E-01 ( 20,  1, 87)  0.3324E-02 ( 19,  1, 87)  0.2248E-02 ( 18,  1, 87)  0.2180E-03 ( 16,  1, 88)  0.1405E-03 ( 16,  1, 89)
   0.3077E-04 ( 16,  1, 90)  0.4512E-04 ( 21,  1, 78)  0.4099E-04 ( 21,  1, 78)  0.8019E-06 ( 16,  1, 89)
     1 CALLS TO GCG PACKAGE FOR TRANSPORT TIME STEP 160 IN FLOW TIME STEP   1 STRESS PERIOD   1
     9 TOTAL ITERATIONS
  MAXIMUM CONCENTRATION CHANGES FOR EACH ITERATION:
  MAX. CHANGE LAYER,ROW,COL MAX. CHANGE LAYER,ROW,COL MAX. CHANGE LAYER,ROW,COL MAX. CHANGE LAYER,ROW,COL MAX. CHANGE LAYER,ROW,COL
 ------------------------------------------------------------------------------------------------------------------------------------
   0.5945E-01 ( 19,  1, 88)  0.7745E-02 ( 19,  1, 87)  0.4213E-02 ( 18,  1, 87)  0.2586E-02 ( 18,  1, 87)  0.1351E-03 ( 17,  1, 89)
   0.3983E-04 ( 17,  1, 90)  0.7806E-05 ( 17,  1, 90)  0.1462E-05 ( 17,  1, 90)  0.1221E-06 ( 23,  1, 85)



 >>>>>>>>>>>>>>>>>>>>>>>>>>>>>>>>>>>>>>>>>>>>>>>>>>>>>>>FOR COMPONENT NO. 01<<<<<<<<<<<<<<<<<<<<<<<<<<<<<<<<<<<<<<<<<<<<<<<<<<<<<<<


                                            -------------------------------------------
                                                      TRANSPORT STEP NO.  160
                                            -------------------------------------------

 TOTAL ELAPSED TIME SINCE BEGINNING OF SIMULATION =   8000.000    D   
 .....................................................................

                     CUMMULATIVE MASS BUDGETS AT END OF TRANSPORT STEP  160, TIME STEP    1, STRESS PERIOD    1
                     ------------------------------------------------------------------------------------------

                                                             IN                           OUT
                                                      ----------------             ----------------
                               CONSTANT CONCENTRATION:    0.000000                    0.000000    
                                        CONSTANT HEAD:   0.3168773E+09              -0.3167107E+09
                                                WELLS:    0.000000                    0.000000    
                                             RECHARGE:    0.000000                    0.000000    
                               1ST/0TH ORDER REACTION:    0.000000                    0.000000    
                                MASS STORAGE (SOLUTE):   0.4437919E+08              -0.4454582E+08
                            ---------------------------------------------------------------------------
                                              [TOTAL]:   0.3612568E+09 KG           -0.3612569E+09 KG  

                                                          NET (IN - OUT):   -49.09201    
                                                   DISCREPANCY (PERCENT):  -0.1358923E-04



 >>>>>>>>>>>>>>>>>>>>>>>>>>>>>>>>>>>>>>>>>>>>>>>>>>>>>>>FOR COMPONENT NO. 02<<<<<<<<<<<<<<<<<<<<<<<<<<<<<<<<<<<<<<<<<<<<<<<<<<<<<<<


                                            -------------------------------------------
                                                      TRANSPORT STEP NO.  160
                                            -------------------------------------------

 TOTAL ELAPSED TIME SINCE BEGINNING OF SIMULATION =   8000.000    D   
 .....................................................................

                     CUMMULATIVE MASS BUDGETS AT END OF TRANSPORT STEP  160, TIME STEP    1, STRESS PERIOD    1
                     ------------------------------------------------------------------------------------------

                                                             IN                           OUT
                                                      ----------------             ----------------
                               CONSTANT CONCENTRATION:    0.000000                    0.000000    
                                        CONSTANT HEAD:    0.000000                  -0.2106542E+11
                                                WELLS:    0.000000                    0.000000    
                                             RECHARGE:    0.000000                    0.000000    
                               1ST/0TH ORDER REACTION:   0.1324000E+12                0.000000    
                                MASS STORAGE (SOLUTE):   0.3989574E+10              -0.1153242E+12
                            ---------------------------------------------------------------------------
                                              [TOTAL]:   0.1363897E+12 KG           -0.1363897E+12 KG  

                                                          NET (IN - OUT):   -259.8835    
                                                   DISCREPANCY (PERCENT):  -0.1905449E-06
 
 SOLVING FOR HEAD 


     2 CALLS TO PCG ROUTINE FOR TIME STEP   1 IN STRESS PERIOD    1
     9 TOTAL ITERATIONS

 MAXIMUM HEAD CHANGE FOR EACH ITERATION (1 INDICATES THE FIRST INNER ITERATION):

    HEAD CHANGE    HEAD CHANGE    HEAD CHANGE    HEAD CHANGE    HEAD CHANGE 
   LAYER,ROW,COL  LAYER,ROW,COL  LAYER,ROW,COL  LAYER,ROW,COL  LAYER,ROW,COL
 ---------------------------------------------------------------------------
  1  0.1332E-01  0 -0.3714E-02  0 -0.2537E-02  0 -0.8153E-02  0  0.8834E-02
   ( 15,  1, 86)  ( 17,  1, 89)  (  7,  1, 12)  (  7,  1, 47)  (  8,  1, 47)
  0  0.1153E-02  0 -0.1004E-02  0 -0.7501E-03  1  0.9340E-03
   ( 11,  1, 49)  ( 11,  1, 59)  ( 11,  1, 70)  ( 11,  1, 70)

 MAXIMUM RESIDUAL FOR EACH ITERATION (1 INDICATES THE FIRST INNER ITERATION):

    RESIDUAL       RESIDUAL       RESIDUAL       RESIDUAL       RESIDUAL    
   LAYER,ROW,COL  LAYER,ROW,COL  LAYER,ROW,COL  LAYER,ROW,COL  LAYER,ROW,COL
 ---------------------------------------------------------------------------
  1  0.1333E+06  0 -0.9333E+05  0 -0.9009E+05  0 -0.3640E+05  0  -6083.    
   ( 21,  1, 89)  ( 19,  1, 89)  ( 19,  1, 89)  ( 19,  1, 89)  ( 17,  1, 87)
  0   2886.      0   2282.      0   864.1      1   724.1    
   ( 22,  1, 87)  ( 22,  1, 87)  ( 22,  1, 87)  ( 22,  1, 87)


 FLOW MODEL IS TRANSIENT
 FLOW MODEL CONTAINS CONSTANT-HEAD CELLS


 MAXIMUM STEPSIZE DURING WHICH ANY PARTICLE CANNOT MOVE MORE THAN ONE CELL
 =  12.87    (WHEN MIN. R.F.=1)  AT K=  17, I=   1, J=  90

 MAXIMUM STEPSIZE WHICH MEETS STABILITY CRITERION OF THE ADVECTION TERM
 (FOR PURE FINITE-DIFFERENCE OPTION, MIXELM=0) 
 =  8.038    (WHEN MIN. R.F.=1)  AT K=  16, I=   1, J=  90


 TOTAL NUMBER OF POINT SOURCES/SINKS PRESENT IN THE FLOW MODEL =    30

 MAXIMUM STEPSIZE WHICH MEETS STABILITY CRITERION OF THE SINK & SOURCE TERM
 =  12.21    (WHEN MIN. R.F.=1)  AT K=  17, I=   1, J=  91

 MAXIMUM STEPSIZE WHICH MEETS STABILITY CRITERION OF THE DISPERSION TERM
 =  4.036    (WHEN MIN. R.F.=1)  AT K=  17, I=   1, J=  90
     1 CALLS TO GCG PACKAGE FOR TRANSPORT TIME STEP 161 IN FLOW TIME STEP   1 STRESS PERIOD   1
     8 TOTAL ITERATIONS
     1 CALLS TO GCG PACKAGE FOR TRANSPORT TIME STEP 161 IN FLOW TIME STEP   1 STRESS PERIOD   1
     8 TOTAL ITERATIONS
 
 SOLVING FOR HEAD 


     2 CALLS TO PCG ROUTINE FOR TIME STEP   1 IN STRESS PERIOD    1
     8 TOTAL ITERATIONS

 MAXIMUM HEAD CHANGE FOR EACH ITERATION (1 INDICATES THE FIRST INNER ITERATION):

    HEAD CHANGE    HEAD CHANGE    HEAD CHANGE    HEAD CHANGE    HEAD CHANGE 
   LAYER,ROW,COL  LAYER,ROW,COL  LAYER,ROW,COL  LAYER,ROW,COL  LAYER,ROW,COL
 ---------------------------------------------------------------------------
  1 -0.1352E-01  0  0.3722E-02  0  0.2449E-02  0  0.1296E-01  0 -0.1319E-01
   ( 15,  1, 86)  ( 17,  1, 89)  (  8,  1, 12)  ( 11,  1, 54)  ( 11,  1, 54)
  0 -0.1413E-02  0  0.9554E-03  1  0.5567E-03
   ( 11,  1, 65)  ( 11,  1, 64)  ( 11,  1, 49)

 MAXIMUM RESIDUAL FOR EACH ITERATION (1 INDICATES THE FIRST INNER ITERATION):

    RESIDUAL       RESIDUAL       RESIDUAL       RESIDUAL       RESIDUAL    
   LAYER,ROW,COL  LAYER,ROW,COL  LAYER,ROW,COL  LAYER,ROW,COL  LAYER,ROW,COL
 ---------------------------------------------------------------------------
  1 -0.1338E+06  0  0.9441E+05  0  0.9303E+05  0  0.2986E+05  0   5490.    
   ( 21,  1, 89)  ( 19,  1, 89)  ( 19,  1, 89)  ( 19,  1, 89)  ( 17,  1, 87)
  0  -2825.      0  -2300.      1  -2011.    
   ( 22,  1, 87)  ( 22,  1, 87)  ( 22,  1, 87)


 FLOW MODEL IS TRANSIENT
 FLOW MODEL CONTAINS CONSTANT-HEAD CELLS


 MAXIMUM STEPSIZE DURING WHICH ANY PARTICLE CANNOT MOVE MORE THAN ONE CELL
 =  13.22    (WHEN MIN. R.F.=1)  AT K=  17, I=   1, J=  90

 MAXIMUM STEPSIZE WHICH MEETS STABILITY CRITERION OF THE ADVECTION TERM
 (FOR PURE FINITE-DIFFERENCE OPTION, MIXELM=0) 
 =  8.007    (WHEN MIN. R.F.=1)  AT K=  16, I=   1, J=  90


 TOTAL NUMBER OF POINT SOURCES/SINKS PRESENT IN THE FLOW MODEL =    30

 MAXIMUM STEPSIZE WHICH MEETS STABILITY CRITERION OF THE SINK & SOURCE TERM
 =  12.17    (WHEN MIN. R.F.=1)  AT K=  17, I=   1, J=  91

 MAXIMUM STEPSIZE WHICH MEETS STABILITY CRITERION OF THE DISPERSION TERM
 =  4.365    (WHEN MIN. R.F.=1)  AT K=  17, I=   1, J=  90
     1 CALLS TO GCG PACKAGE FOR TRANSPORT TIME STEP 162 IN FLOW TIME STEP   1 STRESS PERIOD   1
     8 TOTAL ITERATIONS
     1 CALLS TO GCG PACKAGE FOR TRANSPORT TIME STEP 162 IN FLOW TIME STEP   1 STRESS PERIOD   1
     9 TOTAL ITERATIONS
 
 SOLVING FOR HEAD 


     2 CALLS TO PCG ROUTINE FOR TIME STEP   1 IN STRESS PERIOD    1
     9 TOTAL ITERATIONS

 MAXIMUM HEAD CHANGE FOR EACH ITERATION (1 INDICATES THE FIRST INNER ITERATION):

    HEAD CHANGE    HEAD CHANGE    HEAD CHANGE    HEAD CHANGE    HEAD CHANGE 
   LAYER,ROW,COL  LAYER,ROW,COL  LAYER,ROW,COL  LAYER,ROW,COL  LAYER,ROW,COL
 ---------------------------------------------------------------------------
  1  0.1382E-01  0 -0.4003E-02  0 -0.4037E-02  0  0.1012E-01  0 -0.8585E-02
   ( 15,  1, 86)  ( 17,  1, 89)  (  8,  1, 12)  (  9,  1, 51)  (  9,  1, 51)
  0 -0.2209E-02  0 -0.1069E-02  0 -0.8698E-03  1  0.6900E-03
   ( 11,  1, 54)  ( 11,  1, 70)  ( 11,  1, 58)  ( 11,  1, 59)

 MAXIMUM RESIDUAL FOR EACH ITERATION (1 INDICATES THE FIRST INNER ITERATION):

    RESIDUAL       RESIDUAL       RESIDUAL       RESIDUAL       RESIDUAL    
   LAYER,ROW,COL  LAYER,ROW,COL  LAYER,ROW,COL  LAYER,ROW,COL  LAYER,ROW,COL
 ---------------------------------------------------------------------------
  1  0.1337E+06  0 -0.9464E+05  0 -0.9387E+05  0 -0.6023E+05  0  -5816.    
   ( 21,  1, 89)  ( 19,  1, 89)  ( 19,  1, 89)  ( 19,  1, 89)  ( 17,  1, 87)
  0   2832.      0   2595.      0   946.6      1   846.8    
   ( 22,  1, 87)  ( 22,  1, 87)  ( 22,  1, 87)  ( 22,  1, 87)


 FLOW MODEL IS TRANSIENT
 FLOW MODEL CONTAINS CONSTANT-HEAD CELLS


 MAXIMUM STEPSIZE DURING WHICH ANY PARTICLE CANNOT MOVE MORE THAN ONE CELL
 =  12.91    (WHEN MIN. R.F.=1)  AT K=  17, I=   1, J=  90

 MAXIMUM STEPSIZE WHICH MEETS STABILITY CRITERION OF THE ADVECTION TERM
 (FOR PURE FINITE-DIFFERENCE OPTION, MIXELM=0) 
 =  8.057    (WHEN MIN. R.F.=1)  AT K=  16, I=   1, J=  90


 TOTAL NUMBER OF POINT SOURCES/SINKS PRESENT IN THE FLOW MODEL =    30

 MAXIMUM STEPSIZE WHICH MEETS STABILITY CRITERION OF THE SINK & SOURCE TERM
 =  12.27    (WHEN MIN. R.F.=1)  AT K=  17, I=   1, J=  91

 MAXIMUM STEPSIZE WHICH MEETS STABILITY CRITERION OF THE DISPERSION TERM
 =  4.049    (WHEN MIN. R.F.=1)  AT K=  17, I=   1, J=  90
     1 CALLS TO GCG PACKAGE FOR TRANSPORT TIME STEP 163 IN FLOW TIME STEP   1 STRESS PERIOD   1
     8 TOTAL ITERATIONS
     1 CALLS TO GCG PACKAGE FOR TRANSPORT TIME STEP 163 IN FLOW TIME STEP   1 STRESS PERIOD   1
     8 TOTAL ITERATIONS
 
 SOLVING FOR HEAD 


     2 CALLS TO PCG ROUTINE FOR TIME STEP   1 IN STRESS PERIOD    1
     8 TOTAL ITERATIONS

 MAXIMUM HEAD CHANGE FOR EACH ITERATION (1 INDICATES THE FIRST INNER ITERATION):

    HEAD CHANGE    HEAD CHANGE    HEAD CHANGE    HEAD CHANGE    HEAD CHANGE 
   LAYER,ROW,COL  LAYER,ROW,COL  LAYER,ROW,COL  LAYER,ROW,COL  LAYER,ROW,COL
 ---------------------------------------------------------------------------
  1 -0.1363E-01  0  0.3975E-02  0  0.3414E-02  0 -0.1044E-01  0  0.1100E-01
   ( 15,  1, 86)  ( 17,  1, 89)  (  8,  1, 12)  ( 11,  1, 57)  ( 11,  1, 57)
  0  0.2165E-02  0  0.7582E-03  1  0.5269E-03
   ( 11,  1, 68)  ( 11,  1, 51)  ( 11,  1, 60)

 MAXIMUM RESIDUAL FOR EACH ITERATION (1 INDICATES THE FIRST INNER ITERATION):

    RESIDUAL       RESIDUAL       RESIDUAL       RESIDUAL       RESIDUAL    
   LAYER,ROW,COL  LAYER,ROW,COL  LAYER,ROW,COL  LAYER,ROW,COL  LAYER,ROW,COL
 ---------------------------------------------------------------------------
  1 -0.1351E+06  0  0.9601E+05  0  0.9510E+05  0  0.2065E+05  0   4966.    
   ( 21,  1, 89)  ( 19,  1, 89)  ( 19,  1, 89)  ( 19,  1, 89)  ( 17,  1, 87)
  0  -2861.      0  -2444.      1  -2117.    
   ( 22,  1, 87)  ( 22,  1, 87)  ( 22,  1, 87)


 FLOW MODEL IS TRANSIENT
 FLOW MODEL CONTAINS CONSTANT-HEAD CELLS


 MAXIMUM STEPSIZE DURING WHICH ANY PARTICLE CANNOT MOVE MORE THAN ONE CELL
 =  13.25    (WHEN MIN. R.F.=1)  AT K=  17, I=   1, J=  90

 MAXIMUM STEPSIZE WHICH MEETS STABILITY CRITERION OF THE ADVECTION TERM
 (FOR PURE FINITE-DIFFERENCE OPTION, MIXELM=0) 
 =  8.014    (WHEN MIN. R.F.=1)  AT K=  16, I=   1, J=  90


 TOTAL NUMBER OF POINT SOURCES/SINKS PRESENT IN THE FLOW MODEL =    30

 MAXIMUM STEPSIZE WHICH MEETS STABILITY CRITERION OF THE SINK & SOURCE TERM
 =  12.20    (WHEN MIN. R.F.=1)  AT K=  17, I=   1, J=  91

 MAXIMUM STEPSIZE WHICH MEETS STABILITY CRITERION OF THE DISPERSION TERM
 =  4.378    (WHEN MIN. R.F.=1)  AT K=  17, I=   1, J=  90
     1 CALLS TO GCG PACKAGE FOR TRANSPORT TIME STEP 164 IN FLOW TIME STEP   1 STRESS PERIOD   1
    10 TOTAL ITERATIONS
     1 CALLS TO GCG PACKAGE FOR TRANSPORT TIME STEP 164 IN FLOW TIME STEP   1 STRESS PERIOD   1
     9 TOTAL ITERATIONS
 
 SOLVING FOR HEAD 


     2 CALLS TO PCG ROUTINE FOR TIME STEP   1 IN STRESS PERIOD    1
     9 TOTAL ITERATIONS

 MAXIMUM HEAD CHANGE FOR EACH ITERATION (1 INDICATES THE FIRST INNER ITERATION):

    HEAD CHANGE    HEAD CHANGE    HEAD CHANGE    HEAD CHANGE    HEAD CHANGE 
   LAYER,ROW,COL  LAYER,ROW,COL  LAYER,ROW,COL  LAYER,ROW,COL  LAYER,ROW,COL
 ---------------------------------------------------------------------------
  1  0.1371E-01  0  0.5499E-02  0 -0.3497E-02  0 -0.9925E-02  0  0.7872E-02
   ( 15,  1, 86)  (  7,  1, 52)  (  7,  1, 12)  (  9,  1, 53)  (  7,  1, 52)
  0  0.2388E-02  0 -0.1403E-02  0 -0.5741E-03  1  0.5656E-03
   ( 11,  1, 59)  ( 11,  1, 59)  ( 11,  1, 70)  ( 11,  1, 70)

 MAXIMUM RESIDUAL FOR EACH ITERATION (1 INDICATES THE FIRST INNER ITERATION):

    RESIDUAL       RESIDUAL       RESIDUAL       RESIDUAL       RESIDUAL    
   LAYER,ROW,COL  LAYER,ROW,COL  LAYER,ROW,COL  LAYER,ROW,COL  LAYER,ROW,COL
 ---------------------------------------------------------------------------
  1  0.1366E+06  0 -0.9733E+05  0 -0.9641E+05  0 -0.6986E+05  0  -5952.    
   ( 21,  1, 89)  ( 19,  1, 89)  ( 19,  1, 89)  ( 19,  1, 89)  ( 17,  1, 87)
  0   2762.      0   2596.      0   828.9      1   718.4    
   ( 22,  1, 87)  ( 22,  1, 87)  ( 22,  1, 87)  ( 22,  1, 87)


 FLOW MODEL IS TRANSIENT
 FLOW MODEL CONTAINS CONSTANT-HEAD CELLS


 MAXIMUM STEPSIZE DURING WHICH ANY PARTICLE CANNOT MOVE MORE THAN ONE CELL
 =  12.90    (WHEN MIN. R.F.=1)  AT K=  17, I=   1, J=  90

 MAXIMUM STEPSIZE WHICH MEETS STABILITY CRITERION OF THE ADVECTION TERM
 (FOR PURE FINITE-DIFFERENCE OPTION, MIXELM=0) 
 =  8.057    (WHEN MIN. R.F.=1)  AT K=  16, I=   1, J=  90


 TOTAL NUMBER OF POINT SOURCES/SINKS PRESENT IN THE FLOW MODEL =    30

 MAXIMUM STEPSIZE WHICH MEETS STABILITY CRITERION OF THE SINK & SOURCE TERM
 =  12.27    (WHEN MIN. R.F.=1)  AT K=  17, I=   1, J=  91

 MAXIMUM STEPSIZE WHICH MEETS STABILITY CRITERION OF THE DISPERSION TERM
 =  4.042    (WHEN MIN. R.F.=1)  AT K=  17, I=   1, J=  90
     1 CALLS TO GCG PACKAGE FOR TRANSPORT TIME STEP 165 IN FLOW TIME STEP   1 STRESS PERIOD   1
     8 TOTAL ITERATIONS
  MAXIMUM CONCENTRATION CHANGES FOR EACH ITERATION:
  MAX. CHANGE LAYER,ROW,COL MAX. CHANGE LAYER,ROW,COL MAX. CHANGE LAYER,ROW,COL MAX. CHANGE LAYER,ROW,COL MAX. CHANGE LAYER,ROW,COL
 ------------------------------------------------------------------------------------------------------------------------------------
   0.5215E-01 ( 20,  1, 87)  0.4287E-02 ( 19,  1, 89)  0.2078E-02 ( 17,  1, 86)  0.4969E-03 ( 20,  1, 89)  0.9497E-04 ( 16,  1, 89)
   0.2067E-04 ( 20,  1, 89)  0.2137E-04 ( 16,  1, 90)  0.6812E-06 ( 17,  1, 90)
     1 CALLS TO GCG PACKAGE FOR TRANSPORT TIME STEP 165 IN FLOW TIME STEP   1 STRESS PERIOD   1
     9 TOTAL ITERATIONS
  MAXIMUM CONCENTRATION CHANGES FOR EACH ITERATION:
  MAX. CHANGE LAYER,ROW,COL MAX. CHANGE LAYER,ROW,COL MAX. CHANGE LAYER,ROW,COL MAX. CHANGE LAYER,ROW,COL MAX. CHANGE LAYER,ROW,COL
 ------------------------------------------------------------------------------------------------------------------------------------
   0.6331E-01 ( 20,  1, 87)  0.6203E-02 ( 19,  1, 86)  0.6058E-02 ( 19,  1, 89)  0.4811E-02 ( 19,  1, 89)  0.2994E-04 ( 16,  1, 89)
   0.4953E-04 ( 16,  1, 89)  0.1435E-04 ( 16,  1, 89)  0.1002E-05 ( 17,  1, 90)  0.1242E-06 ( 23,  1, 85)
 
 SOLVING FOR HEAD 


     2 CALLS TO PCG ROUTINE FOR TIME STEP   1 IN STRESS PERIOD    1
     9 TOTAL ITERATIONS

 MAXIMUM HEAD CHANGE FOR EACH ITERATION (1 INDICATES THE FIRST INNER ITERATION):

    HEAD CHANGE    HEAD CHANGE    HEAD CHANGE    HEAD CHANGE    HEAD CHANGE 
   LAYER,ROW,COL  LAYER,ROW,COL  LAYER,ROW,COL  LAYER,ROW,COL  LAYER,ROW,COL
 ---------------------------------------------------------------------------
  1 -0.1366E-01  0 -0.4063E-02  0  0.4336E-02  0 -0.9146E-02  0  0.1008E-01
   ( 15,  1, 86)  (  8,  1, 12)  (  8,  1, 12)  ( 11,  1, 49)  ( 11,  1, 49)
  0 -0.2382E-02  0  0.1169E-02  0  0.5998E-03  1 -0.4687E-03
   ( 11,  1, 51)  ( 11,  1, 53)  ( 11,  1, 70)  ( 11,  1, 66)

 MAXIMUM RESIDUAL FOR EACH ITERATION (1 INDICATES THE FIRST INNER ITERATION):

    RESIDUAL       RESIDUAL       RESIDUAL       RESIDUAL       RESIDUAL    
   LAYER,ROW,COL  LAYER,ROW,COL  LAYER,ROW,COL  LAYER,ROW,COL  LAYER,ROW,COL
 ---------------------------------------------------------------------------
  1 -0.1356E+06  0  0.9595E+05  0  0.9524E+05  0  0.1840E+05  0  -4645.    
   ( 21,  1, 89)  ( 19,  1, 89)  ( 19,  1, 89)  ( 19,  1, 89)  ( 17,  1, 88)
  0  -2842.      0  -2480.      0  -685.7      1  -600.0    
   ( 22,  1, 87)  ( 22,  1, 87)  ( 22,  1, 87)  ( 22,  1, 87)


 FLOW MODEL IS TRANSIENT
 FLOW MODEL CONTAINS CONSTANT-HEAD CELLS


 MAXIMUM STEPSIZE DURING WHICH ANY PARTICLE CANNOT MOVE MORE THAN ONE CELL
 =  13.25    (WHEN MIN. R.F.=1)  AT K=  17, I=   1, J=  90

 MAXIMUM STEPSIZE WHICH MEETS STABILITY CRITERION OF THE ADVECTION TERM
 (FOR PURE FINITE-DIFFERENCE OPTION, MIXELM=0) 
 =  8.014    (WHEN MIN. R.F.=1)  AT K=  16, I=   1, J=  90


 TOTAL NUMBER OF POINT SOURCES/SINKS PRESENT IN THE FLOW MODEL =    30

 MAXIMUM STEPSIZE WHICH MEETS STABILITY CRITERION OF THE SINK & SOURCE TERM
 =  12.20    (WHEN MIN. R.F.=1)  AT K=  17, I=   1, J=  91

 MAXIMUM STEPSIZE WHICH MEETS STABILITY CRITERION OF THE DISPERSION TERM
 =  4.384    (WHEN MIN. R.F.=1)  AT K=  17, I=   1, J=  90
     1 CALLS TO GCG PACKAGE FOR TRANSPORT TIME STEP 166 IN FLOW TIME STEP   1 STRESS PERIOD   1
     9 TOTAL ITERATIONS
     1 CALLS TO GCG PACKAGE FOR TRANSPORT TIME STEP 166 IN FLOW TIME STEP   1 STRESS PERIOD   1
     9 TOTAL ITERATIONS
 
 SOLVING FOR HEAD 


     2 CALLS TO PCG ROUTINE FOR TIME STEP   1 IN STRESS PERIOD    1
    11 TOTAL ITERATIONS

 MAXIMUM HEAD CHANGE FOR EACH ITERATION (1 INDICATES THE FIRST INNER ITERATION):

    HEAD CHANGE    HEAD CHANGE    HEAD CHANGE    HEAD CHANGE    HEAD CHANGE 
   LAYER,ROW,COL  LAYER,ROW,COL  LAYER,ROW,COL  LAYER,ROW,COL  LAYER,ROW,COL
 ---------------------------------------------------------------------------
  1  0.1324E-01  0 -0.3661E-02  0 -0.6127E-02  0  0.4342E-02  0 -0.8330E-02
   ( 15,  1, 86)  ( 17,  1, 89)  ( 11,  1, 36)  (  6,  1, 12)  (  7,  1, 45)
  0  0.1685E-02  0 -0.1311E-02  0 -0.1054E-02  0  0.1010E-02  0 -0.2224E-03
   ( 11,  1, 60)  ( 11,  1, 59)  ( 11,  1, 70)  ( 11,  1, 70)  ( 11,  1, 69)
  1  0.1140E-03
   ( 11,  1, 68)

 MAXIMUM RESIDUAL FOR EACH ITERATION (1 INDICATES THE FIRST INNER ITERATION):

    RESIDUAL       RESIDUAL       RESIDUAL       RESIDUAL       RESIDUAL    
   LAYER,ROW,COL  LAYER,ROW,COL  LAYER,ROW,COL  LAYER,ROW,COL  LAYER,ROW,COL
 ---------------------------------------------------------------------------
  1  0.1354E+06  0 -0.9544E+05  0 -0.5733E+05  0 -0.3689E+05  0  -6171.    
   ( 21,  1, 89)  ( 19,  1, 89)  ( 19,  1, 89)  ( 19,  1, 89)  ( 17,  1, 87)
  0   2881.      0   2531.      0   850.5      0  -326.8      0  -254.4    
   ( 22,  1, 87)  ( 22,  1, 87)  ( 22,  1, 87)  ( 18,  1, 90)  ( 18,  1, 90)
  1  -234.0    
   ( 17,  1, 89)


 FLOW MODEL IS TRANSIENT
 FLOW MODEL CONTAINS CONSTANT-HEAD CELLS


 MAXIMUM STEPSIZE DURING WHICH ANY PARTICLE CANNOT MOVE MORE THAN ONE CELL
 =  12.86    (WHEN MIN. R.F.=1)  AT K=  17, I=   1, J=  90

 MAXIMUM STEPSIZE WHICH MEETS STABILITY CRITERION OF THE ADVECTION TERM
 (FOR PURE FINITE-DIFFERENCE OPTION, MIXELM=0) 
 =  8.037    (WHEN MIN. R.F.=1)  AT K=  16, I=   1, J=  90


 TOTAL NUMBER OF POINT SOURCES/SINKS PRESENT IN THE FLOW MODEL =    30

 MAXIMUM STEPSIZE WHICH MEETS STABILITY CRITERION OF THE SINK & SOURCE TERM
 =  12.21    (WHEN MIN. R.F.=1)  AT K=  17, I=   1, J=  91

 MAXIMUM STEPSIZE WHICH MEETS STABILITY CRITERION OF THE DISPERSION TERM
 =  4.030    (WHEN MIN. R.F.=1)  AT K=  17, I=   1, J=  90
     1 CALLS TO GCG PACKAGE FOR TRANSPORT TIME STEP 167 IN FLOW TIME STEP   1 STRESS PERIOD   1
     8 TOTAL ITERATIONS
     1 CALLS TO GCG PACKAGE FOR TRANSPORT TIME STEP 167 IN FLOW TIME STEP   1 STRESS PERIOD   1
     9 TOTAL ITERATIONS
 
 SOLVING FOR HEAD 


     2 CALLS TO PCG ROUTINE FOR TIME STEP   1 IN STRESS PERIOD    1
     8 TOTAL ITERATIONS

 MAXIMUM HEAD CHANGE FOR EACH ITERATION (1 INDICATES THE FIRST INNER ITERATION):

    HEAD CHANGE    HEAD CHANGE    HEAD CHANGE    HEAD CHANGE    HEAD CHANGE 
   LAYER,ROW,COL  LAYER,ROW,COL  LAYER,ROW,COL  LAYER,ROW,COL  LAYER,ROW,COL
 ---------------------------------------------------------------------------
  1 -0.1348E-01  0  0.3618E-02  0  0.3181E-02  0  0.4566E-02  0 -0.7086E-02
   ( 15,  1, 86)  ( 17,  1, 89)  (  8,  1, 12)  ( 11,  1, 53)  ( 11,  1, 53)
  0  0.2728E-02  0  0.8738E-03  1 -0.6093E-03
   ( 11,  1, 53)  ( 11,  1, 70)  ( 11,  1, 35)

 MAXIMUM RESIDUAL FOR EACH ITERATION (1 INDICATES THE FIRST INNER ITERATION):

    RESIDUAL       RESIDUAL       RESIDUAL       RESIDUAL       RESIDUAL    
   LAYER,ROW,COL  LAYER,ROW,COL  LAYER,ROW,COL  LAYER,ROW,COL  LAYER,ROW,COL
 ---------------------------------------------------------------------------
  1 -0.1340E+06  0  0.9375E+05  0  0.9282E+05  0  0.1275E+05  0  -3487.    
   ( 21,  1, 89)  ( 19,  1, 89)  ( 19,  1, 89)  ( 17,  1, 87)  ( 17,  1, 88)
  0  -2822.      0  -1957.      1  -1731.    
   ( 22,  1, 87)  ( 22,  1, 87)  ( 22,  1, 87)


 FLOW MODEL IS TRANSIENT
 FLOW MODEL CONTAINS CONSTANT-HEAD CELLS


 MAXIMUM STEPSIZE DURING WHICH ANY PARTICLE CANNOT MOVE MORE THAN ONE CELL
 =  13.23    (WHEN MIN. R.F.=1)  AT K=  17, I=   1, J=  90

 MAXIMUM STEPSIZE WHICH MEETS STABILITY CRITERION OF THE ADVECTION TERM
 (FOR PURE FINITE-DIFFERENCE OPTION, MIXELM=0) 
 =  8.012    (WHEN MIN. R.F.=1)  AT K=  16, I=   1, J=  90


 TOTAL NUMBER OF POINT SOURCES/SINKS PRESENT IN THE FLOW MODEL =    30

 MAXIMUM STEPSIZE WHICH MEETS STABILITY CRITERION OF THE SINK & SOURCE TERM
 =  12.18    (WHEN MIN. R.F.=1)  AT K=  17, I=   1, J=  91

 MAXIMUM STEPSIZE WHICH MEETS STABILITY CRITERION OF THE DISPERSION TERM
 =  4.368    (WHEN MIN. R.F.=1)  AT K=  17, I=   1, J=  90
     1 CALLS TO GCG PACKAGE FOR TRANSPORT TIME STEP 168 IN FLOW TIME STEP   1 STRESS PERIOD   1
    10 TOTAL ITERATIONS
     1 CALLS TO GCG PACKAGE FOR TRANSPORT TIME STEP 168 IN FLOW TIME STEP   1 STRESS PERIOD   1
     9 TOTAL ITERATIONS
 
 SOLVING FOR HEAD 


     2 CALLS TO PCG ROUTINE FOR TIME STEP   1 IN STRESS PERIOD    1
     8 TOTAL ITERATIONS

 MAXIMUM HEAD CHANGE FOR EACH ITERATION (1 INDICATES THE FIRST INNER ITERATION):

    HEAD CHANGE    HEAD CHANGE    HEAD CHANGE    HEAD CHANGE    HEAD CHANGE 
   LAYER,ROW,COL  LAYER,ROW,COL  LAYER,ROW,COL  LAYER,ROW,COL  LAYER,ROW,COL
 ---------------------------------------------------------------------------
  1  0.1369E-01  0  0.3860E-02  0 -0.2916E-02  0 -0.1002E-01  0  0.9219E-02
   ( 15,  1, 86)  (  5,  1, 38)  (  7,  1, 12)  (  6,  1, 40)  (  6,  1, 41)
  0  0.2132E-02  0 -0.9332E-03  1 -0.5932E-03
   ( 11,  1, 43)  ( 11,  1, 58)  ( 11,  1, 70)

 MAXIMUM RESIDUAL FOR EACH ITERATION (1 INDICATES THE FIRST INNER ITERATION):

    RESIDUAL       RESIDUAL       RESIDUAL       RESIDUAL       RESIDUAL    
   LAYER,ROW,COL  LAYER,ROW,COL  LAYER,ROW,COL  LAYER,ROW,COL  LAYER,ROW,COL
 ---------------------------------------------------------------------------
  1  0.1325E+06  0 -0.9314E+05  0 -0.9213E+05  0 -0.4642E+05  0  -5808.    
   ( 21,  1, 89)  ( 19,  1, 89)  ( 19,  1, 89)  ( 19,  1, 89)  ( 17,  1, 87)
  0   2862.      0   2653.      1   1820.    
   ( 22,  1, 87)  ( 22,  1, 87)  ( 22,  1, 87)


 FLOW MODEL IS TRANSIENT
 FLOW MODEL CONTAINS CONSTANT-HEAD CELLS


 MAXIMUM STEPSIZE DURING WHICH ANY PARTICLE CANNOT MOVE MORE THAN ONE CELL
 =  12.91    (WHEN MIN. R.F.=1)  AT K=  17, I=   1, J=  90

 MAXIMUM STEPSIZE WHICH MEETS STABILITY CRITERION OF THE ADVECTION TERM
 (FOR PURE FINITE-DIFFERENCE OPTION, MIXELM=0) 
 =  8.054    (WHEN MIN. R.F.=1)  AT K=  16, I=   1, J=  90


 TOTAL NUMBER OF POINT SOURCES/SINKS PRESENT IN THE FLOW MODEL =    30

 MAXIMUM STEPSIZE WHICH MEETS STABILITY CRITERION OF THE SINK & SOURCE TERM
 =  12.27    (WHEN MIN. R.F.=1)  AT K=  17, I=   1, J=  91

 MAXIMUM STEPSIZE WHICH MEETS STABILITY CRITERION OF THE DISPERSION TERM
 =  4.051    (WHEN MIN. R.F.=1)  AT K=  17, I=   1, J=  90
     1 CALLS TO GCG PACKAGE FOR TRANSPORT TIME STEP 169 IN FLOW TIME STEP   1 STRESS PERIOD   1
     8 TOTAL ITERATIONS
     1 CALLS TO GCG PACKAGE FOR TRANSPORT TIME STEP 169 IN FLOW TIME STEP   1 STRESS PERIOD   1
     9 TOTAL ITERATIONS
 
 SOLVING FOR HEAD 


     2 CALLS TO PCG ROUTINE FOR TIME STEP   1 IN STRESS PERIOD    1
     9 TOTAL ITERATIONS

 MAXIMUM HEAD CHANGE FOR EACH ITERATION (1 INDICATES THE FIRST INNER ITERATION):

    HEAD CHANGE    HEAD CHANGE    HEAD CHANGE    HEAD CHANGE    HEAD CHANGE 
   LAYER,ROW,COL  LAYER,ROW,COL  LAYER,ROW,COL  LAYER,ROW,COL  LAYER,ROW,COL
 ---------------------------------------------------------------------------
  1 -0.1376E-01  0 -0.7696E-02  0  0.4872E-02  0 -0.1083E-01  0  0.7822E-02
   ( 15,  1, 86)  ( 11,  1, 68)  (  8,  1, 12)  ( 11,  1, 51)  ( 11,  1, 51)
  0  0.2742E-02  0 -0.1134E-02  0  0.8339E-03  1 -0.6414E-03
   (  6,  1, 38)  (  7,  1, 39)  ( 11,  1, 52)  ( 11,  1, 52)

 MAXIMUM RESIDUAL FOR EACH ITERATION (1 INDICATES THE FIRST INNER ITERATION):

    RESIDUAL       RESIDUAL       RESIDUAL       RESIDUAL       RESIDUAL    
   LAYER,ROW,COL  LAYER,ROW,COL  LAYER,ROW,COL  LAYER,ROW,COL  LAYER,ROW,COL
 ---------------------------------------------------------------------------
  1 -0.1377E+06  0  0.9798E+05  0  0.9734E+05  0  0.7889E+05  0   6224.    
   ( 21,  1, 89)  ( 19,  1, 89)  ( 19,  1, 89)  ( 19,  1, 89)  ( 17,  1, 87)
  0  -3133.      0  -2628.      0  -1651.      1  -1464.    
   ( 17,  1, 88)  ( 22,  1, 87)  ( 22,  1, 87)  ( 22,  1, 87)


 FLOW MODEL IS TRANSIENT
 FLOW MODEL CONTAINS CONSTANT-HEAD CELLS


 MAXIMUM STEPSIZE DURING WHICH ANY PARTICLE CANNOT MOVE MORE THAN ONE CELL
 =  13.19    (WHEN MIN. R.F.=1)  AT K=  17, I=   1, J=  90

 MAXIMUM STEPSIZE WHICH MEETS STABILITY CRITERION OF THE ADVECTION TERM
 (FOR PURE FINITE-DIFFERENCE OPTION, MIXELM=0) 
 =  7.991    (WHEN MIN. R.F.=1)  AT K=  16, I=   1, J=  90


 TOTAL NUMBER OF POINT SOURCES/SINKS PRESENT IN THE FLOW MODEL =    30

 MAXIMUM STEPSIZE WHICH MEETS STABILITY CRITERION OF THE SINK & SOURCE TERM
 =  12.14    (WHEN MIN. R.F.=1)  AT K=  17, I=   1, J=  91

 MAXIMUM STEPSIZE WHICH MEETS STABILITY CRITERION OF THE DISPERSION TERM
 =  4.355    (WHEN MIN. R.F.=1)  AT K=  17, I=   1, J=  90
     1 CALLS TO GCG PACKAGE FOR TRANSPORT TIME STEP 170 IN FLOW TIME STEP   1 STRESS PERIOD   1
     9 TOTAL ITERATIONS
  MAXIMUM CONCENTRATION CHANGES FOR EACH ITERATION:
  MAX. CHANGE LAYER,ROW,COL MAX. CHANGE LAYER,ROW,COL MAX. CHANGE LAYER,ROW,COL MAX. CHANGE LAYER,ROW,COL MAX. CHANGE LAYER,ROW,COL
 ------------------------------------------------------------------------------------------------------------------------------------
   0.4868E-01 ( 20,  1, 87)  0.3285E-02 ( 19,  1, 87)  0.2138E-02 ( 18,  1, 87)  0.2127E-03 ( 16,  1, 88)  0.1415E-03 ( 17,  1, 89)
   0.2813E-04 ( 16,  1, 90)  0.2510E-05 ( 21,  1, 78)  0.2185E-05 ( 21,  1, 78)  0.7930E-06 ( 16,  1, 89)
     1 CALLS TO GCG PACKAGE FOR TRANSPORT TIME STEP 170 IN FLOW TIME STEP   1 STRESS PERIOD   1
     9 TOTAL ITERATIONS
  MAXIMUM CONCENTRATION CHANGES FOR EACH ITERATION:
  MAX. CHANGE LAYER,ROW,COL MAX. CHANGE LAYER,ROW,COL MAX. CHANGE LAYER,ROW,COL MAX. CHANGE LAYER,ROW,COL MAX. CHANGE LAYER,ROW,COL
 ------------------------------------------------------------------------------------------------------------------------------------
   0.5911E-01 ( 19,  1, 88)  0.7358E-02 ( 19,  1, 87)  0.3256E-02 ( 18,  1, 87)  0.1666E-02 ( 18,  1, 87)  0.1366E-03 ( 17,  1, 89)
   0.4071E-04 ( 17,  1, 90)  0.7365E-05 ( 17,  1, 90)  0.1197E-05 ( 17,  1, 90)  0.1185E-06 ( 23,  1, 85)



 >>>>>>>>>>>>>>>>>>>>>>>>>>>>>>>>>>>>>>>>>>>>>>>>>>>>>>>FOR COMPONENT NO. 01<<<<<<<<<<<<<<<<<<<<<<<<<<<<<<<<<<<<<<<<<<<<<<<<<<<<<<<


                                            -------------------------------------------
                                                      TRANSPORT STEP NO.  170
                                            -------------------------------------------

 TOTAL ELAPSED TIME SINCE BEGINNING OF SIMULATION =   8500.000    D   
 .....................................................................

                     CUMMULATIVE MASS BUDGETS AT END OF TRANSPORT STEP  170, TIME STEP    1, STRESS PERIOD    1
                     ------------------------------------------------------------------------------------------

                                                             IN                           OUT
                                                      ----------------             ----------------
                               CONSTANT CONCENTRATION:    0.000000                    0.000000    
                                        CONSTANT HEAD:   0.3366300E+09              -0.3364615E+09
                                                WELLS:    0.000000                    0.000000    
                                             RECHARGE:    0.000000                    0.000000    
                               1ST/0TH ORDER REACTION:    0.000000                    0.000000    
                                MASS STORAGE (SOLUTE):   0.4714904E+08              -0.4731763E+08
                            ---------------------------------------------------------------------------
                                              [TOTAL]:   0.3837794E+09 KG           -0.3837795E+09 KG  

                                                          NET (IN - OUT):   -48.39157    
                                                   DISCREPANCY (PERCENT):  -0.1260921E-04



 >>>>>>>>>>>>>>>>>>>>>>>>>>>>>>>>>>>>>>>>>>>>>>>>>>>>>>>FOR COMPONENT NO. 02<<<<<<<<<<<<<<<<<<<<<<<<<<<<<<<<<<<<<<<<<<<<<<<<<<<<<<<


                                            -------------------------------------------
                                                      TRANSPORT STEP NO.  170
                                            -------------------------------------------

 TOTAL ELAPSED TIME SINCE BEGINNING OF SIMULATION =   8500.000    D   
 .....................................................................

                     CUMMULATIVE MASS BUDGETS AT END OF TRANSPORT STEP  170, TIME STEP    1, STRESS PERIOD    1
                     ------------------------------------------------------------------------------------------

                                                             IN                           OUT
                                                      ----------------             ----------------
                               CONSTANT CONCENTRATION:    0.000000                    0.000000    
                                        CONSTANT HEAD:    0.000000                  -0.2341461E+11
                                                WELLS:    0.000000                    0.000000    
                                             RECHARGE:    0.000000                    0.000000    
                               1ST/0TH ORDER REACTION:   0.1406750E+12                0.000000    
                                MASS STORAGE (SOLUTE):   0.4586009E+10              -0.1218464E+12
                            ---------------------------------------------------------------------------
                                              [TOTAL]:   0.1452611E+12 KG           -0.1452611E+12 KG  

                                                          NET (IN - OUT):   -715.9473    
                                                   DISCREPANCY (PERCENT):  -0.4928692E-06
 
 SOLVING FOR HEAD 


     2 CALLS TO PCG ROUTINE FOR TIME STEP   1 IN STRESS PERIOD    1
     8 TOTAL ITERATIONS

 MAXIMUM HEAD CHANGE FOR EACH ITERATION (1 INDICATES THE FIRST INNER ITERATION):

    HEAD CHANGE    HEAD CHANGE    HEAD CHANGE    HEAD CHANGE    HEAD CHANGE 
   LAYER,ROW,COL  LAYER,ROW,COL  LAYER,ROW,COL  LAYER,ROW,COL  LAYER,ROW,COL
 ---------------------------------------------------------------------------
  1  0.1364E-01  0 -0.4112E-02  0 -0.3262E-02  0  0.9222E-02  0 -0.9112E-02
   ( 15,  1, 86)  ( 17,  1, 89)  (  8,  1, 12)  ( 11,  1, 53)  ( 11,  1, 53)
  0  0.1790E-02  0 -0.6580E-03  1 -0.6476E-03
   (  7,  1, 44)  ( 11,  1, 62)  ( 11,  1, 52)

 MAXIMUM RESIDUAL FOR EACH ITERATION (1 INDICATES THE FIRST INNER ITERATION):

    RESIDUAL       RESIDUAL       RESIDUAL       RESIDUAL       RESIDUAL    
   LAYER,ROW,COL  LAYER,ROW,COL  LAYER,ROW,COL  LAYER,ROW,COL  LAYER,ROW,COL
 ---------------------------------------------------------------------------
  1  0.1364E+06  0 -0.9757E+05  0 -0.9660E+05  0 -0.2491E+05  0   5310.    
   ( 21,  1, 89)  ( 19,  1, 89)  ( 19,  1, 89)  ( 19,  1, 89)  ( 17,  1, 88)
  0   2744.      0   2493.      1   1930.    
   ( 22,  1, 87)  ( 22,  1, 87)  ( 22,  1, 87)


 FLOW MODEL IS TRANSIENT
 FLOW MODEL CONTAINS CONSTANT-HEAD CELLS


 MAXIMUM STEPSIZE DURING WHICH ANY PARTICLE CANNOT MOVE MORE THAN ONE CELL
 =  12.84    (WHEN MIN. R.F.=1)  AT K=  17, I=   1, J=  90

 MAXIMUM STEPSIZE WHICH MEETS STABILITY CRITERION OF THE ADVECTION TERM
 (FOR PURE FINITE-DIFFERENCE OPTION, MIXELM=0) 
 =  8.033    (WHEN MIN. R.F.=1)  AT K=  16, I=   1, J=  90


 TOTAL NUMBER OF POINT SOURCES/SINKS PRESENT IN THE FLOW MODEL =    30

 MAXIMUM STEPSIZE WHICH MEETS STABILITY CRITERION OF THE SINK & SOURCE TERM
 =  12.20    (WHEN MIN. R.F.=1)  AT K=  17, I=   1, J=  91

 MAXIMUM STEPSIZE WHICH MEETS STABILITY CRITERION OF THE DISPERSION TERM
 =  4.020    (WHEN MIN. R.F.=1)  AT K=  17, I=   1, J=  90
     1 CALLS TO GCG PACKAGE FOR TRANSPORT TIME STEP 171 IN FLOW TIME STEP   1 STRESS PERIOD   1
     8 TOTAL ITERATIONS
     1 CALLS TO GCG PACKAGE FOR TRANSPORT TIME STEP 171 IN FLOW TIME STEP   1 STRESS PERIOD   1
     9 TOTAL ITERATIONS
 
 SOLVING FOR HEAD 


     2 CALLS TO PCG ROUTINE FOR TIME STEP   1 IN STRESS PERIOD    1
     9 TOTAL ITERATIONS

 MAXIMUM HEAD CHANGE FOR EACH ITERATION (1 INDICATES THE FIRST INNER ITERATION):

    HEAD CHANGE    HEAD CHANGE    HEAD CHANGE    HEAD CHANGE    HEAD CHANGE 
   LAYER,ROW,COL  LAYER,ROW,COL  LAYER,ROW,COL  LAYER,ROW,COL  LAYER,ROW,COL
 ---------------------------------------------------------------------------
  1 -0.1372E-01  0 -0.7415E-02  0  0.5659E-02  0  0.9189E-02  0  0.6307E-02
   ( 15,  1, 86)  ( 11,  1, 52)  (  8,  1, 12)  ( 11,  1, 52)  (  9,  1, 53)
  0  0.3737E-02  0  0.1240E-02  0  0.5600E-03  1 -0.5047E-03
   ( 11,  1, 42)  ( 11,  1, 53)  ( 11,  1, 70)  ( 11,  1, 70)

 MAXIMUM RESIDUAL FOR EACH ITERATION (1 INDICATES THE FIRST INNER ITERATION):

    RESIDUAL       RESIDUAL       RESIDUAL       RESIDUAL       RESIDUAL    
   LAYER,ROW,COL  LAYER,ROW,COL  LAYER,ROW,COL  LAYER,ROW,COL  LAYER,ROW,COL
 ---------------------------------------------------------------------------
  1 -0.1342E+06  0  0.9418E+05  0  0.9376E+05  0  0.7629E+05  0   6611.    
   ( 21,  1, 89)  ( 19,  1, 89)  ( 19,  1, 89)  ( 19,  1, 89)  ( 17,  1, 87)
  0  -3215.      0  -2605.      0  -1159.      1  -1043.    
   ( 17,  1, 88)  ( 22,  1, 87)  ( 22,  1, 87)  ( 22,  1, 87)


 FLOW MODEL IS TRANSIENT
 FLOW MODEL CONTAINS CONSTANT-HEAD CELLS


 MAXIMUM STEPSIZE DURING WHICH ANY PARTICLE CANNOT MOVE MORE THAN ONE CELL
 =  13.19    (WHEN MIN. R.F.=1)  AT K=  17, I=   1, J=  90

 MAXIMUM STEPSIZE WHICH MEETS STABILITY CRITERION OF THE ADVECTION TERM
 (FOR PURE FINITE-DIFFERENCE OPTION, MIXELM=0) 
 =  7.987    (WHEN MIN. R.F.=1)  AT K=  16, I=   1, J=  90


 TOTAL NUMBER OF POINT SOURCES/SINKS PRESENT IN THE FLOW MODEL =    30

 MAXIMUM STEPSIZE WHICH MEETS STABILITY CRITERION OF THE SINK & SOURCE TERM
 =  12.12    (WHEN MIN. R.F.=1)  AT K=  17, I=   1, J=  91

 MAXIMUM STEPSIZE WHICH MEETS STABILITY CRITERION OF THE DISPERSION TERM
 =  4.361    (WHEN MIN. R.F.=1)  AT K=  17, I=   1, J=  90
     1 CALLS TO GCG PACKAGE FOR TRANSPORT TIME STEP 172 IN FLOW TIME STEP   1 STRESS PERIOD   1
    10 TOTAL ITERATIONS
     1 CALLS TO GCG PACKAGE FOR TRANSPORT TIME STEP 172 IN FLOW TIME STEP   1 STRESS PERIOD   1
     9 TOTAL ITERATIONS
 
 SOLVING FOR HEAD 


     2 CALLS TO PCG ROUTINE FOR TIME STEP   1 IN STRESS PERIOD    1
     8 TOTAL ITERATIONS

 MAXIMUM HEAD CHANGE FOR EACH ITERATION (1 INDICATES THE FIRST INNER ITERATION):

    HEAD CHANGE    HEAD CHANGE    HEAD CHANGE    HEAD CHANGE    HEAD CHANGE 
   LAYER,ROW,COL  LAYER,ROW,COL  LAYER,ROW,COL  LAYER,ROW,COL  LAYER,ROW,COL
 ---------------------------------------------------------------------------
  1  0.1351E-01  0 -0.4143E-02  0 -0.3074E-02  0 -0.7287E-02  0  0.8486E-02
   ( 15,  1, 86)  ( 17,  1, 89)  (  8,  1, 12)  ( 11,  1, 55)  ( 11,  1, 55)
  0 -0.1420E-02  0 -0.5777E-03  1 -0.5675E-03
   ( 11,  1, 55)  ( 11,  1, 43)  ( 11,  1, 67)

 MAXIMUM RESIDUAL FOR EACH ITERATION (1 INDICATES THE FIRST INNER ITERATION):

    RESIDUAL       RESIDUAL       RESIDUAL       RESIDUAL       RESIDUAL    
   LAYER,ROW,COL  LAYER,ROW,COL  LAYER,ROW,COL  LAYER,ROW,COL  LAYER,ROW,COL
 ---------------------------------------------------------------------------
  1  0.1353E+06  0 -0.9628E+05  0 -0.9528E+05  0 -0.2256E+05  0   5392.    
   ( 21,  1, 89)  ( 19,  1, 89)  ( 19,  1, 89)  ( 19,  1, 89)  ( 17,  1, 88)
  0   2748.      0   2298.      1   2025.    
   ( 22,  1, 87)  ( 22,  1, 87)  ( 22,  1, 87)


 FLOW MODEL IS TRANSIENT
 FLOW MODEL CONTAINS CONSTANT-HEAD CELLS


 MAXIMUM STEPSIZE DURING WHICH ANY PARTICLE CANNOT MOVE MORE THAN ONE CELL
 =  12.83    (WHEN MIN. R.F.=1)  AT K=  17, I=   1, J=  90

 MAXIMUM STEPSIZE WHICH MEETS STABILITY CRITERION OF THE ADVECTION TERM
 (FOR PURE FINITE-DIFFERENCE OPTION, MIXELM=0) 
 =  8.029    (WHEN MIN. R.F.=1)  AT K=  16, I=   1, J=  90


 TOTAL NUMBER OF POINT SOURCES/SINKS PRESENT IN THE FLOW MODEL =    30

 MAXIMUM STEPSIZE WHICH MEETS STABILITY CRITERION OF THE SINK & SOURCE TERM
 =  12.19    (WHEN MIN. R.F.=1)  AT K=  17, I=   1, J=  91

 MAXIMUM STEPSIZE WHICH MEETS STABILITY CRITERION OF THE DISPERSION TERM
 =  4.019    (WHEN MIN. R.F.=1)  AT K=  17, I=   1, J=  90
     1 CALLS TO GCG PACKAGE FOR TRANSPORT TIME STEP 173 IN FLOW TIME STEP   1 STRESS PERIOD   1
     8 TOTAL ITERATIONS
     1 CALLS TO GCG PACKAGE FOR TRANSPORT TIME STEP 173 IN FLOW TIME STEP   1 STRESS PERIOD   1
     9 TOTAL ITERATIONS
 
 SOLVING FOR HEAD 


     2 CALLS TO PCG ROUTINE FOR TIME STEP   1 IN STRESS PERIOD    1
     8 TOTAL ITERATIONS

 MAXIMUM HEAD CHANGE FOR EACH ITERATION (1 INDICATES THE FIRST INNER ITERATION):

    HEAD CHANGE    HEAD CHANGE    HEAD CHANGE    HEAD CHANGE    HEAD CHANGE 
   LAYER,ROW,COL  LAYER,ROW,COL  LAYER,ROW,COL  LAYER,ROW,COL  LAYER,ROW,COL
 ---------------------------------------------------------------------------
  1 -0.1377E-01  0 -0.5092E-02  0  0.4781E-02  0  0.9208E-02  0 -0.7578E-02
   ( 15,  1, 86)  (  6,  1, 50)  (  8,  1, 12)  ( 10,  1, 54)  (  8,  1, 53)
  0  0.1889E-02  0 -0.8231E-03  1  0.6394E-03
   ( 11,  1, 59)  ( 11,  1, 58)  ( 11,  1, 57)

 MAXIMUM RESIDUAL FOR EACH ITERATION (1 INDICATES THE FIRST INNER ITERATION):

    RESIDUAL       RESIDUAL       RESIDUAL       RESIDUAL       RESIDUAL    
   LAYER,ROW,COL  LAYER,ROW,COL  LAYER,ROW,COL  LAYER,ROW,COL  LAYER,ROW,COL
 ---------------------------------------------------------------------------
  1 -0.1343E+06  0  0.9456E+05  0  0.9397E+05  0  0.6646E+05  0   6059.    
   ( 21,  1, 89)  ( 19,  1, 89)  ( 19,  1, 89)  ( 19,  1, 89)  ( 17,  1, 87)
  0  -2786.      0  -2547.      1  -1843.    
   ( 22,  1, 87)  ( 22,  1, 87)  ( 22,  1, 87)


 FLOW MODEL IS TRANSIENT
 FLOW MODEL CONTAINS CONSTANT-HEAD CELLS


 MAXIMUM STEPSIZE DURING WHICH ANY PARTICLE CANNOT MOVE MORE THAN ONE CELL
 =  13.19    (WHEN MIN. R.F.=1)  AT K=  17, I=   1, J=  90

 MAXIMUM STEPSIZE WHICH MEETS STABILITY CRITERION OF THE ADVECTION TERM
 (FOR PURE FINITE-DIFFERENCE OPTION, MIXELM=0) 
 =  7.986    (WHEN MIN. R.F.=1)  AT K=  16, I=   1, J=  90


 TOTAL NUMBER OF POINT SOURCES/SINKS PRESENT IN THE FLOW MODEL =    30

 MAXIMUM STEPSIZE WHICH MEETS STABILITY CRITERION OF THE SINK & SOURCE TERM
 =  12.11    (WHEN MIN. R.F.=1)  AT K=  17, I=   1, J=  91

 MAXIMUM STEPSIZE WHICH MEETS STABILITY CRITERION OF THE DISPERSION TERM
 =  4.361    (WHEN MIN. R.F.=1)  AT K=  17, I=   1, J=  90
     1 CALLS TO GCG PACKAGE FOR TRANSPORT TIME STEP 174 IN FLOW TIME STEP   1 STRESS PERIOD   1
    10 TOTAL ITERATIONS
     1 CALLS TO GCG PACKAGE FOR TRANSPORT TIME STEP 174 IN FLOW TIME STEP   1 STRESS PERIOD   1
     9 TOTAL ITERATIONS
 
 SOLVING FOR HEAD 


     2 CALLS TO PCG ROUTINE FOR TIME STEP   1 IN STRESS PERIOD    1
     8 TOTAL ITERATIONS

 MAXIMUM HEAD CHANGE FOR EACH ITERATION (1 INDICATES THE FIRST INNER ITERATION):

    HEAD CHANGE    HEAD CHANGE    HEAD CHANGE    HEAD CHANGE    HEAD CHANGE 
   LAYER,ROW,COL  LAYER,ROW,COL  LAYER,ROW,COL  LAYER,ROW,COL  LAYER,ROW,COL
 ---------------------------------------------------------------------------
  1  0.1377E-01  0  0.7856E-02  0 -0.3742E-02  0 -0.1063E-01  0  0.7647E-02
   ( 15,  1, 86)  ( 11,  1, 57)  (  7,  1, 12)  ( 11,  1, 56)  ( 11,  1, 56)
  0 -0.3399E-02  0 -0.9708E-03  1  0.5273E-03
   ( 11,  1, 68)  ( 11,  1, 42)  ( 11,  1, 52)

 MAXIMUM RESIDUAL FOR EACH ITERATION (1 INDICATES THE FIRST INNER ITERATION):

    RESIDUAL       RESIDUAL       RESIDUAL       RESIDUAL       RESIDUAL    
   LAYER,ROW,COL  LAYER,ROW,COL  LAYER,ROW,COL  LAYER,ROW,COL  LAYER,ROW,COL
 ---------------------------------------------------------------------------
  1  0.1361E+06  0 -0.9663E+05  0 -0.9576E+05  0 -0.7652E+05  0   6222.    
   ( 21,  1, 89)  ( 19,  1, 89)  ( 19,  1, 89)  ( 19,  1, 89)  ( 17,  1, 88)
  0   3009.      0   2520.      1   1772.    
   ( 17,  1, 88)  ( 22,  1, 87)  ( 22,  1, 87)


 FLOW MODEL IS TRANSIENT
 FLOW MODEL CONTAINS CONSTANT-HEAD CELLS


 MAXIMUM STEPSIZE DURING WHICH ANY PARTICLE CANNOT MOVE MORE THAN ONE CELL
 =  12.86    (WHEN MIN. R.F.=1)  AT K=  17, I=   1, J=  90

 MAXIMUM STEPSIZE WHICH MEETS STABILITY CRITERION OF THE ADVECTION TERM
 (FOR PURE FINITE-DIFFERENCE OPTION, MIXELM=0) 
 =  8.043    (WHEN MIN. R.F.=1)  AT K=  16, I=   1, J=  90


 TOTAL NUMBER OF POINT SOURCES/SINKS PRESENT IN THE FLOW MODEL =    30

 MAXIMUM STEPSIZE WHICH MEETS STABILITY CRITERION OF THE SINK & SOURCE TERM
 =  12.22    (WHEN MIN. R.F.=1)  AT K=  17, I=   1, J=  91

 MAXIMUM STEPSIZE WHICH MEETS STABILITY CRITERION OF THE DISPERSION TERM
 =  4.029    (WHEN MIN. R.F.=1)  AT K=  17, I=   1, J=  90
     1 CALLS TO GCG PACKAGE FOR TRANSPORT TIME STEP 175 IN FLOW TIME STEP   1 STRESS PERIOD   1
     8 TOTAL ITERATIONS
  MAXIMUM CONCENTRATION CHANGES FOR EACH ITERATION:
  MAX. CHANGE LAYER,ROW,COL MAX. CHANGE LAYER,ROW,COL MAX. CHANGE LAYER,ROW,COL MAX. CHANGE LAYER,ROW,COL MAX. CHANGE LAYER,ROW,COL
 ------------------------------------------------------------------------------------------------------------------------------------
   0.5164E-01 ( 20,  1, 87)  0.4309E-02 ( 19,  1, 89)  0.2060E-02 ( 17,  1, 86)  0.4990E-03 ( 20,  1, 89)  0.8900E-04 ( 16,  1, 89)
   0.2134E-04 ( 20,  1, 89)  0.2520E-04 ( 16,  1, 90)  0.6194E-06 ( 17,  1, 90)
     1 CALLS TO GCG PACKAGE FOR TRANSPORT TIME STEP 175 IN FLOW TIME STEP   1 STRESS PERIOD   1
     8 TOTAL ITERATIONS
  MAXIMUM CONCENTRATION CHANGES FOR EACH ITERATION:
  MAX. CHANGE LAYER,ROW,COL MAX. CHANGE LAYER,ROW,COL MAX. CHANGE LAYER,ROW,COL MAX. CHANGE LAYER,ROW,COL MAX. CHANGE LAYER,ROW,COL
 ------------------------------------------------------------------------------------------------------------------------------------
   0.6351E-01 ( 20,  1, 87)  0.5921E-02 ( 19,  1, 86)  0.4535E-02 ( 19,  1, 89)  0.3276E-02 ( 19,  1, 89)  0.3314E-04 ( 16,  1, 89)
   0.4487E-04 ( 16,  1, 89)  0.1800E-04 ( 16,  1, 89)  0.9955E-06 ( 17,  1, 90)
 
 SOLVING FOR HEAD 


     2 CALLS TO PCG ROUTINE FOR TIME STEP   1 IN STRESS PERIOD    1
     9 TOTAL ITERATIONS

 MAXIMUM HEAD CHANGE FOR EACH ITERATION (1 INDICATES THE FIRST INNER ITERATION):

    HEAD CHANGE    HEAD CHANGE    HEAD CHANGE    HEAD CHANGE    HEAD CHANGE 
   LAYER,ROW,COL  LAYER,ROW,COL  LAYER,ROW,COL  LAYER,ROW,COL  LAYER,ROW,COL
 ---------------------------------------------------------------------------
  1 -0.1371E-01  0  0.9994E-02  0  0.5061E-02  0 -0.1049E-01  0 -0.6911E-02
   ( 15,  1, 86)  ( 11,  1, 51)  (  7,  1, 12)  ( 11,  1, 51)  ( 11,  1, 67)
  0  0.4276E-02  0 -0.1393E-02  0 -0.9815E-03  1  0.8334E-03
   ( 11,  1, 52)  ( 11,  1, 52)  ( 11,  1, 67)  ( 11,  1, 67)

 MAXIMUM RESIDUAL FOR EACH ITERATION (1 INDICATES THE FIRST INNER ITERATION):

    RESIDUAL       RESIDUAL       RESIDUAL       RESIDUAL       RESIDUAL    
   LAYER,ROW,COL  LAYER,ROW,COL  LAYER,ROW,COL  LAYER,ROW,COL  LAYER,ROW,COL
 ---------------------------------------------------------------------------
  1 -0.1355E+06  0  0.9591E+05  0  0.9535E+05  0  0.8123E+05  0  -6720.    
   ( 21,  1, 89)  ( 19,  1, 89)  ( 19,  1, 89)  ( 19,  1, 89)  ( 17,  1, 88)
  0  -3285.      0  -2528.      0  -1550.      1  -1368.    
   ( 17,  1, 88)  ( 22,  1, 87)  ( 22,  1, 87)  ( 22,  1, 87)


 FLOW MODEL IS TRANSIENT
 FLOW MODEL CONTAINS CONSTANT-HEAD CELLS


 MAXIMUM STEPSIZE DURING WHICH ANY PARTICLE CANNOT MOVE MORE THAN ONE CELL
 =  13.22    (WHEN MIN. R.F.=1)  AT K=  17, I=   1, J=  90

 MAXIMUM STEPSIZE WHICH MEETS STABILITY CRITERION OF THE ADVECTION TERM
 (FOR PURE FINITE-DIFFERENCE OPTION, MIXELM=0) 
 =  7.996    (WHEN MIN. R.F.=1)  AT K=  16, I=   1, J=  90


 TOTAL NUMBER OF POINT SOURCES/SINKS PRESENT IN THE FLOW MODEL =    30

 MAXIMUM STEPSIZE WHICH MEETS STABILITY CRITERION OF THE SINK & SOURCE TERM
 =  12.16    (WHEN MIN. R.F.=1)  AT K=  17, I=   1, J=  91

 MAXIMUM STEPSIZE WHICH MEETS STABILITY CRITERION OF THE DISPERSION TERM
 =  4.381    (WHEN MIN. R.F.=1)  AT K=  17, I=   1, J=  90
     1 CALLS TO GCG PACKAGE FOR TRANSPORT TIME STEP 176 IN FLOW TIME STEP   1 STRESS PERIOD   1
    10 TOTAL ITERATIONS
     1 CALLS TO GCG PACKAGE FOR TRANSPORT TIME STEP 176 IN FLOW TIME STEP   1 STRESS PERIOD   1
     9 TOTAL ITERATIONS
 
 SOLVING FOR HEAD 


     2 CALLS TO PCG ROUTINE FOR TIME STEP   1 IN STRESS PERIOD    1
     8 TOTAL ITERATIONS

 MAXIMUM HEAD CHANGE FOR EACH ITERATION (1 INDICATES THE FIRST INNER ITERATION):

    HEAD CHANGE    HEAD CHANGE    HEAD CHANGE    HEAD CHANGE    HEAD CHANGE 
   LAYER,ROW,COL  LAYER,ROW,COL  LAYER,ROW,COL  LAYER,ROW,COL  LAYER,ROW,COL
 ---------------------------------------------------------------------------
  1  0.1360E-01  0 -0.4219E-02  0 -0.3361E-02  0  0.9435E-02  0 -0.9079E-02
   ( 15,  1, 86)  ( 17,  1, 89)  (  8,  1, 12)  ( 11,  1, 57)  ( 11,  1, 57)
  0 -0.1756E-02  0 -0.7587E-03  1 -0.6498E-03
   ( 11,  1, 68)  ( 11,  1, 52)  ( 11,  1, 42)

 MAXIMUM RESIDUAL FOR EACH ITERATION (1 INDICATES THE FIRST INNER ITERATION):

    RESIDUAL       RESIDUAL       RESIDUAL       RESIDUAL       RESIDUAL    
   LAYER,ROW,COL  LAYER,ROW,COL  LAYER,ROW,COL  LAYER,ROW,COL  LAYER,ROW,COL
 ---------------------------------------------------------------------------
  1  0.1364E+06  0 -0.9683E+05  0 -0.9590E+05  0 -0.2801E+05  0   5439.    
   ( 21,  1, 89)  ( 19,  1, 89)  ( 19,  1, 89)  ( 19,  1, 89)  ( 17,  1, 88)
  0   2760.      0   2353.      1   1999.    
   ( 22,  1, 87)  ( 22,  1, 87)  ( 22,  1, 87)


 FLOW MODEL IS TRANSIENT
 FLOW MODEL CONTAINS CONSTANT-HEAD CELLS


 MAXIMUM STEPSIZE DURING WHICH ANY PARTICLE CANNOT MOVE MORE THAN ONE CELL
 =  12.84    (WHEN MIN. R.F.=1)  AT K=  17, I=   1, J=  90

 MAXIMUM STEPSIZE WHICH MEETS STABILITY CRITERION OF THE ADVECTION TERM
 (FOR PURE FINITE-DIFFERENCE OPTION, MIXELM=0) 
 =  8.034    (WHEN MIN. R.F.=1)  AT K=  16, I=   1, J=  90


 TOTAL NUMBER OF POINT SOURCES/SINKS PRESENT IN THE FLOW MODEL =    30

 MAXIMUM STEPSIZE WHICH MEETS STABILITY CRITERION OF THE SINK & SOURCE TERM
 =  12.22    (WHEN MIN. R.F.=1)  AT K=  17, I=   1, J=  91

 MAXIMUM STEPSIZE WHICH MEETS STABILITY CRITERION OF THE DISPERSION TERM
 =  4.023    (WHEN MIN. R.F.=1)  AT K=  17, I=   1, J=  90
     1 CALLS TO GCG PACKAGE FOR TRANSPORT TIME STEP 177 IN FLOW TIME STEP   1 STRESS PERIOD   1
     8 TOTAL ITERATIONS
     1 CALLS TO GCG PACKAGE FOR TRANSPORT TIME STEP 177 IN FLOW TIME STEP   1 STRESS PERIOD   1
     9 TOTAL ITERATIONS
 
 SOLVING FOR HEAD 


     2 CALLS TO PCG ROUTINE FOR TIME STEP   1 IN STRESS PERIOD    1
     9 TOTAL ITERATIONS

 MAXIMUM HEAD CHANGE FOR EACH ITERATION (1 INDICATES THE FIRST INNER ITERATION):

    HEAD CHANGE    HEAD CHANGE    HEAD CHANGE    HEAD CHANGE    HEAD CHANGE 
   LAYER,ROW,COL  LAYER,ROW,COL  LAYER,ROW,COL  LAYER,ROW,COL  LAYER,ROW,COL
 ---------------------------------------------------------------------------
  1 -0.1374E-01  0 -0.5183E-02  0  0.5289E-02  0  0.1177E-01  0  0.9094E-02
   ( 15,  1, 86)  (  8,  1, 12)  (  8,  1, 12)  ( 11,  1, 42)  (  7,  1, 47)
  0  0.3601E-02  0 -0.1312E-02  0  0.6876E-03  1 -0.5473E-03
   ( 11,  1, 52)  ( 11,  1, 52)  ( 11,  1, 57)  ( 11,  1, 57)

 MAXIMUM RESIDUAL FOR EACH ITERATION (1 INDICATES THE FIRST INNER ITERATION):

    RESIDUAL       RESIDUAL       RESIDUAL       RESIDUAL       RESIDUAL    
   LAYER,ROW,COL  LAYER,ROW,COL  LAYER,ROW,COL  LAYER,ROW,COL  LAYER,ROW,COL
 ---------------------------------------------------------------------------
  1 -0.1367E+06  0  0.9688E+05  0  0.9634E+05  0  0.6288E+05  0  -6264.    
   ( 21,  1, 89)  ( 19,  1, 89)  ( 19,  1, 89)  ( 19,  1, 89)  ( 17,  1, 88)
  0  -3156.      0  -2547.      0  -1022.      1  -913.1    
   ( 17,  1, 88)  ( 22,  1, 87)  ( 22,  1, 87)  ( 22,  1, 87)


 FLOW MODEL IS TRANSIENT
 FLOW MODEL CONTAINS CONSTANT-HEAD CELLS


 MAXIMUM STEPSIZE DURING WHICH ANY PARTICLE CANNOT MOVE MORE THAN ONE CELL
 =  13.19    (WHEN MIN. R.F.=1)  AT K=  17, I=   1, J=  90

 MAXIMUM STEPSIZE WHICH MEETS STABILITY CRITERION OF THE ADVECTION TERM
 (FOR PURE FINITE-DIFFERENCE OPTION, MIXELM=0) 
 =  7.985    (WHEN MIN. R.F.=1)  AT K=  16, I=   1, J=  90


 TOTAL NUMBER OF POINT SOURCES/SINKS PRESENT IN THE FLOW MODEL =    30

 MAXIMUM STEPSIZE WHICH MEETS STABILITY CRITERION OF THE SINK & SOURCE TERM
 =  12.12    (WHEN MIN. R.F.=1)  AT K=  17, I=   1, J=  91

 MAXIMUM STEPSIZE WHICH MEETS STABILITY CRITERION OF THE DISPERSION TERM
 =  4.367    (WHEN MIN. R.F.=1)  AT K=  17, I=   1, J=  90
     1 CALLS TO GCG PACKAGE FOR TRANSPORT TIME STEP 178 IN FLOW TIME STEP   1 STRESS PERIOD   1
     7 TOTAL ITERATIONS
     1 CALLS TO GCG PACKAGE FOR TRANSPORT TIME STEP 178 IN FLOW TIME STEP   1 STRESS PERIOD   1
     9 TOTAL ITERATIONS
 
 SOLVING FOR HEAD 


     2 CALLS TO PCG ROUTINE FOR TIME STEP   1 IN STRESS PERIOD    1
     8 TOTAL ITERATIONS

 MAXIMUM HEAD CHANGE FOR EACH ITERATION (1 INDICATES THE FIRST INNER ITERATION):

    HEAD CHANGE    HEAD CHANGE    HEAD CHANGE    HEAD CHANGE    HEAD CHANGE 
   LAYER,ROW,COL  LAYER,ROW,COL  LAYER,ROW,COL  LAYER,ROW,COL  LAYER,ROW,COL
 ---------------------------------------------------------------------------
  1  0.1355E-01  0 -0.4153E-02  0 -0.3081E-02  0  0.9717E-02  0 -0.1001E-01
   ( 15,  1, 86)  ( 17,  1, 89)  (  8,  1, 12)  ( 11,  1, 55)  ( 11,  1, 54)
  0 -0.2043E-02  0 -0.6910E-03  1 -0.4990E-03
   ( 11,  1, 68)  ( 11,  1, 36)  (  8,  1, 42)

 MAXIMUM RESIDUAL FOR EACH ITERATION (1 INDICATES THE FIRST INNER ITERATION):

    RESIDUAL       RESIDUAL       RESIDUAL       RESIDUAL       RESIDUAL    
   LAYER,ROW,COL  LAYER,ROW,COL  LAYER,ROW,COL  LAYER,ROW,COL  LAYER,ROW,COL
 ---------------------------------------------------------------------------
  1  0.1359E+06  0 -0.9642E+05  0 -0.9542E+05  0 -0.2389E+05  0   5433.    
   ( 21,  1, 89)  ( 19,  1, 89)  ( 19,  1, 89)  ( 19,  1, 89)  ( 17,  1, 88)
  0   2773.      0   2388.      1   2066.    
   ( 22,  1, 87)  ( 22,  1, 87)  ( 22,  1, 87)


 FLOW MODEL IS TRANSIENT
 FLOW MODEL CONTAINS CONSTANT-HEAD CELLS


 MAXIMUM STEPSIZE DURING WHICH ANY PARTICLE CANNOT MOVE MORE THAN ONE CELL
 =  12.82    (WHEN MIN. R.F.=1)  AT K=  17, I=   1, J=  90

 MAXIMUM STEPSIZE WHICH MEETS STABILITY CRITERION OF THE ADVECTION TERM
 (FOR PURE FINITE-DIFFERENCE OPTION, MIXELM=0) 
 =  8.024    (WHEN MIN. R.F.=1)  AT K=  16, I=   1, J=  90


 TOTAL NUMBER OF POINT SOURCES/SINKS PRESENT IN THE FLOW MODEL =    30

 MAXIMUM STEPSIZE WHICH MEETS STABILITY CRITERION OF THE SINK & SOURCE TERM
 =  12.18    (WHEN MIN. R.F.=1)  AT K=  17, I=   1, J=  91

 MAXIMUM STEPSIZE WHICH MEETS STABILITY CRITERION OF THE DISPERSION TERM
 =  4.017    (WHEN MIN. R.F.=1)  AT K=  17, I=   1, J=  90
     1 CALLS TO GCG PACKAGE FOR TRANSPORT TIME STEP 179 IN FLOW TIME STEP   1 STRESS PERIOD   1
     8 TOTAL ITERATIONS
     1 CALLS TO GCG PACKAGE FOR TRANSPORT TIME STEP 179 IN FLOW TIME STEP   1 STRESS PERIOD   1
     9 TOTAL ITERATIONS
 
 SOLVING FOR HEAD 


     2 CALLS TO PCG ROUTINE FOR TIME STEP   1 IN STRESS PERIOD    1
     9 TOTAL ITERATIONS

 MAXIMUM HEAD CHANGE FOR EACH ITERATION (1 INDICATES THE FIRST INNER ITERATION):

    HEAD CHANGE    HEAD CHANGE    HEAD CHANGE    HEAD CHANGE    HEAD CHANGE 
   LAYER,ROW,COL  LAYER,ROW,COL  LAYER,ROW,COL  LAYER,ROW,COL  LAYER,ROW,COL
 ---------------------------------------------------------------------------
  1 -0.1373E-01  0 -0.6769E-02  0  0.4532E-02  0  0.9657E-02  0 -0.7379E-02
   ( 15,  1, 86)  (  5,  1, 41)  (  7,  1, 12)  (  8,  1, 45)  (  8,  1, 47)
  0  0.2811E-02  0  0.1331E-02  0  0.6908E-03  1 -0.6793E-03
   ( 11,  1, 64)  ( 11,  1, 56)  ( 11,  1, 70)  ( 11,  1, 70)

 MAXIMUM RESIDUAL FOR EACH ITERATION (1 INDICATES THE FIRST INNER ITERATION):

    RESIDUAL       RESIDUAL       RESIDUAL       RESIDUAL       RESIDUAL    
   LAYER,ROW,COL  LAYER,ROW,COL  LAYER,ROW,COL  LAYER,ROW,COL  LAYER,ROW,COL
 ---------------------------------------------------------------------------
  1 -0.1355E+06  0  0.9573E+05  0  0.9507E+05  0  0.7189E+05  0   6172.    
   ( 21,  1, 89)  ( 19,  1, 89)  ( 19,  1, 89)  ( 19,  1, 89)  ( 17,  1, 87)
  0  -2740.      0  -2537.      0  -1030.      1  -910.3    
   ( 17,  1, 88)  ( 22,  1, 87)  ( 22,  1, 87)  ( 22,  1, 87)


 FLOW MODEL IS TRANSIENT
 FLOW MODEL CONTAINS CONSTANT-HEAD CELLS


 MAXIMUM STEPSIZE DURING WHICH ANY PARTICLE CANNOT MOVE MORE THAN ONE CELL
 =  13.17    (WHEN MIN. R.F.=1)  AT K=  17, I=   1, J=  90

 MAXIMUM STEPSIZE WHICH MEETS STABILITY CRITERION OF THE ADVECTION TERM
 (FOR PURE FINITE-DIFFERENCE OPTION, MIXELM=0) 
 =  7.979    (WHEN MIN. R.F.=1)  AT K=  16, I=   1, J=  90


 TOTAL NUMBER OF POINT SOURCES/SINKS PRESENT IN THE FLOW MODEL =    30

 MAXIMUM STEPSIZE WHICH MEETS STABILITY CRITERION OF THE SINK & SOURCE TERM
 =  12.10    (WHEN MIN. R.F.=1)  AT K=  17, I=   1, J=  91

 MAXIMUM STEPSIZE WHICH MEETS STABILITY CRITERION OF THE DISPERSION TERM
 =  4.360    (WHEN MIN. R.F.=1)  AT K=  17, I=   1, J=  90
     1 CALLS TO GCG PACKAGE FOR TRANSPORT TIME STEP 180 IN FLOW TIME STEP   1 STRESS PERIOD   1
    10 TOTAL ITERATIONS
  MAXIMUM CONCENTRATION CHANGES FOR EACH ITERATION:
  MAX. CHANGE LAYER,ROW,COL MAX. CHANGE LAYER,ROW,COL MAX. CHANGE LAYER,ROW,COL MAX. CHANGE LAYER,ROW,COL MAX. CHANGE LAYER,ROW,COL
 ------------------------------------------------------------------------------------------------------------------------------------
   0.4884E-01 ( 20,  1, 87)  0.3317E-02 ( 19,  1, 87)  0.2207E-02 ( 18,  1, 87)  0.2161E-03 ( 16,  1, 88)  0.1444E-03 ( 17,  1, 89)
   0.2896E-04 ( 16,  1, 90)  0.2041E-05 ( 21,  1, 78)  0.1532E-05 ( 21,  1, 78)  0.1659E-05 ( 16,  1, 89)  0.1143E-06 ( 17,  1, 89)
     1 CALLS TO GCG PACKAGE FOR TRANSPORT TIME STEP 180 IN FLOW TIME STEP   1 STRESS PERIOD   1
     9 TOTAL ITERATIONS
  MAXIMUM CONCENTRATION CHANGES FOR EACH ITERATION:
  MAX. CHANGE LAYER,ROW,COL MAX. CHANGE LAYER,ROW,COL MAX. CHANGE LAYER,ROW,COL MAX. CHANGE LAYER,ROW,COL MAX. CHANGE LAYER,ROW,COL
 ------------------------------------------------------------------------------------------------------------------------------------
   0.5900E-01 ( 19,  1, 88)  0.7189E-02 ( 19,  1, 87)  0.2966E-02 ( 18,  1, 87)  0.1300E-02 ( 18,  1, 87)  0.1388E-03 ( 17,  1, 89)
   0.4134E-04 ( 17,  1, 90)  0.7518E-05 ( 17,  1, 90)  0.1129E-05 ( 17,  1, 90)  0.1057E-06 ( 18,  1, 89)



 >>>>>>>>>>>>>>>>>>>>>>>>>>>>>>>>>>>>>>>>>>>>>>>>>>>>>>>FOR COMPONENT NO. 01<<<<<<<<<<<<<<<<<<<<<<<<<<<<<<<<<<<<<<<<<<<<<<<<<<<<<<<


                                            -------------------------------------------
                                                      TRANSPORT STEP NO.  180
                                            -------------------------------------------

 TOTAL ELAPSED TIME SINCE BEGINNING OF SIMULATION =   9000.000    D   
 .....................................................................

                     CUMMULATIVE MASS BUDGETS AT END OF TRANSPORT STEP  180, TIME STEP    1, STRESS PERIOD    1
                     ------------------------------------------------------------------------------------------

                                                             IN                           OUT
                                                      ----------------             ----------------
                               CONSTANT CONCENTRATION:    0.000000                    0.000000    
                                        CONSTANT HEAD:   0.3564319E+09              -0.3562638E+09
                                                WELLS:    0.000000                    0.000000    
                                             RECHARGE:    0.000000                    0.000000    
                               1ST/0TH ORDER REACTION:    0.000000                    0.000000    
                                MASS STORAGE (SOLUTE):   0.4992820E+08              -0.5009637E+08
                            ---------------------------------------------------------------------------
                                              [TOTAL]:   0.4063605E+09 KG           -0.4063605E+09 KG  

                                                          NET (IN - OUT):   -54.62414    
                                                   DISCREPANCY (PERCENT):  -0.1344229E-04



 >>>>>>>>>>>>>>>>>>>>>>>>>>>>>>>>>>>>>>>>>>>>>>>>>>>>>>>FOR COMPONENT NO. 02<<<<<<<<<<<<<<<<<<<<<<<<<<<<<<<<<<<<<<<<<<<<<<<<<<<<<<<


                                            -------------------------------------------
                                                      TRANSPORT STEP NO.  180
                                            -------------------------------------------

 TOTAL ELAPSED TIME SINCE BEGINNING OF SIMULATION =   9000.000    D   
 .....................................................................

                     CUMMULATIVE MASS BUDGETS AT END OF TRANSPORT STEP  180, TIME STEP    1, STRESS PERIOD    1
                     ------------------------------------------------------------------------------------------

                                                             IN                           OUT
                                                      ----------------             ----------------
                               CONSTANT CONCENTRATION:    0.000000                    0.000000    
                                        CONSTANT HEAD:    0.000000                  -0.2586697E+11
                                                WELLS:    0.000000                    0.000000    
                                             RECHARGE:    0.000000                    0.000000    
                               1ST/0TH ORDER REACTION:   0.1489500E+12                0.000000    
                                MASS STORAGE (SOLUTE):   0.5225042E+10              -0.1283081E+12
                            ---------------------------------------------------------------------------
                                              [TOTAL]:   0.1541752E+12 KG           -0.1541752E+12 KG  

                                                          NET (IN - OUT):   -1292.452    
                                                   DISCREPANCY (PERCENT):  -0.8383010E-06
 
 SOLVING FOR HEAD 


     2 CALLS TO PCG ROUTINE FOR TIME STEP   1 IN STRESS PERIOD    1
     9 TOTAL ITERATIONS

 MAXIMUM HEAD CHANGE FOR EACH ITERATION (1 INDICATES THE FIRST INNER ITERATION):

    HEAD CHANGE    HEAD CHANGE    HEAD CHANGE    HEAD CHANGE    HEAD CHANGE 
   LAYER,ROW,COL  LAYER,ROW,COL  LAYER,ROW,COL  LAYER,ROW,COL  LAYER,ROW,COL
 ---------------------------------------------------------------------------
  1  0.1364E-01  0 -0.4171E-02  0 -0.3130E-02  0 -0.1078E-01  0  0.1241E-01
   ( 15,  1, 86)  ( 17,  1, 89)  (  8,  1, 12)  ( 11,  1, 51)  ( 11,  1, 51)
  0 -0.2272E-02  0 -0.1153E-02  0 -0.7176E-03  1  0.4559E-03
   ( 11,  1, 53)  ( 11,  1, 64)  ( 11,  1, 57)  ( 11,  1, 70)

 MAXIMUM RESIDUAL FOR EACH ITERATION (1 INDICATES THE FIRST INNER ITERATION):

    RESIDUAL       RESIDUAL       RESIDUAL       RESIDUAL       RESIDUAL    
   LAYER,ROW,COL  LAYER,ROW,COL  LAYER,ROW,COL  LAYER,ROW,COL  LAYER,ROW,COL
 ---------------------------------------------------------------------------
  1  0.1350E+06  0 -0.9550E+05  0 -0.9454E+05  0 -0.2012E+05  0   5078.    
   ( 21,  1, 89)  ( 19,  1, 89)  ( 19,  1, 89)  ( 19,  1, 89)  ( 17,  1, 88)
  0   2766.      0   2352.      0   670.6      1   562.3    
   ( 22,  1, 87)  ( 22,  1, 87)  ( 22,  1, 87)  ( 22,  1, 87)


 FLOW MODEL IS TRANSIENT
 FLOW MODEL CONTAINS CONSTANT-HEAD CELLS


 MAXIMUM STEPSIZE DURING WHICH ANY PARTICLE CANNOT MOVE MORE THAN ONE CELL
 =  12.84    (WHEN MIN. R.F.=1)  AT K=  17, I=   1, J=  90

 MAXIMUM STEPSIZE WHICH MEETS STABILITY CRITERION OF THE ADVECTION TERM
 (FOR PURE FINITE-DIFFERENCE OPTION, MIXELM=0) 
 =  8.029    (WHEN MIN. R.F.=1)  AT K=  16, I=   1, J=  90


 TOTAL NUMBER OF POINT SOURCES/SINKS PRESENT IN THE FLOW MODEL =    30

 MAXIMUM STEPSIZE WHICH MEETS STABILITY CRITERION OF THE SINK & SOURCE TERM
 =  12.18    (WHEN MIN. R.F.=1)  AT K=  17, I=   1, J=  91

 MAXIMUM STEPSIZE WHICH MEETS STABILITY CRITERION OF THE DISPERSION TERM
 =  4.023    (WHEN MIN. R.F.=1)  AT K=  17, I=   1, J=  90
     1 CALLS TO GCG PACKAGE FOR TRANSPORT TIME STEP 181 IN FLOW TIME STEP   1 STRESS PERIOD   1
     8 TOTAL ITERATIONS
     1 CALLS TO GCG PACKAGE FOR TRANSPORT TIME STEP 181 IN FLOW TIME STEP   1 STRESS PERIOD   1
     9 TOTAL ITERATIONS
 
 SOLVING FOR HEAD 


     2 CALLS TO PCG ROUTINE FOR TIME STEP   1 IN STRESS PERIOD    1
     9 TOTAL ITERATIONS

 MAXIMUM HEAD CHANGE FOR EACH ITERATION (1 INDICATES THE FIRST INNER ITERATION):

    HEAD CHANGE    HEAD CHANGE    HEAD CHANGE    HEAD CHANGE    HEAD CHANGE 
   LAYER,ROW,COL  LAYER,ROW,COL  LAYER,ROW,COL  LAYER,ROW,COL  LAYER,ROW,COL
 ---------------------------------------------------------------------------
  1 -0.1334E-01  0  0.3736E-02  0  0.2359E-02  0  0.8287E-02  0 -0.8506E-02
   ( 15,  1, 86)  ( 17,  1, 89)  (  7,  1, 12)  (  6,  1, 47)  (  5,  1, 47)
  0 -0.1594E-02  0  0.1057E-02  0  0.7787E-03  1 -0.6005E-03
   ( 11,  1, 50)  ( 11,  1, 50)  ( 11,  1, 58)  ( 11,  1, 60)

 MAXIMUM RESIDUAL FOR EACH ITERATION (1 INDICATES THE FIRST INNER ITERATION):

    RESIDUAL       RESIDUAL       RESIDUAL       RESIDUAL       RESIDUAL    
   LAYER,ROW,COL  LAYER,ROW,COL  LAYER,ROW,COL  LAYER,ROW,COL  LAYER,ROW,COL
 ---------------------------------------------------------------------------
  1 -0.1324E+06  0  0.9349E+05  0  0.9197E+05  0  0.3480E+05  0   6244.    
   ( 21,  1, 89)  ( 19,  1, 89)  ( 19,  1, 89)  ( 19,  1, 89)  ( 17,  1, 87)
  0  -2813.      0  -2381.      0  -762.0      1  -625.6    
   ( 22,  1, 87)  ( 22,  1, 87)  ( 22,  1, 87)  ( 22,  1, 87)


 FLOW MODEL IS TRANSIENT
 FLOW MODEL CONTAINS CONSTANT-HEAD CELLS


 MAXIMUM STEPSIZE DURING WHICH ANY PARTICLE CANNOT MOVE MORE THAN ONE CELL
 =  13.23    (WHEN MIN. R.F.=1)  AT K=  17, I=   1, J=  90

 MAXIMUM STEPSIZE WHICH MEETS STABILITY CRITERION OF THE ADVECTION TERM
 (FOR PURE FINITE-DIFFERENCE OPTION, MIXELM=0) 
 =  8.004    (WHEN MIN. R.F.=1)  AT K=  16, I=   1, J=  90


 TOTAL NUMBER OF POINT SOURCES/SINKS PRESENT IN THE FLOW MODEL =    30

 MAXIMUM STEPSIZE WHICH MEETS STABILITY CRITERION OF THE SINK & SOURCE TERM
 =  12.17    (WHEN MIN. R.F.=1)  AT K=  17, I=   1, J=  91

 MAXIMUM STEPSIZE WHICH MEETS STABILITY CRITERION OF THE DISPERSION TERM
 =  4.378    (WHEN MIN. R.F.=1)  AT K=  17, I=   1, J=  90
     1 CALLS TO GCG PACKAGE FOR TRANSPORT TIME STEP 182 IN FLOW TIME STEP   1 STRESS PERIOD   1
     9 TOTAL ITERATIONS
     1 CALLS TO GCG PACKAGE FOR TRANSPORT TIME STEP 182 IN FLOW TIME STEP   1 STRESS PERIOD   1
     9 TOTAL ITERATIONS
 
 SOLVING FOR HEAD 


     2 CALLS TO PCG ROUTINE FOR TIME STEP   1 IN STRESS PERIOD    1
     8 TOTAL ITERATIONS

 MAXIMUM HEAD CHANGE FOR EACH ITERATION (1 INDICATES THE FIRST INNER ITERATION):

    HEAD CHANGE    HEAD CHANGE    HEAD CHANGE    HEAD CHANGE    HEAD CHANGE 
   LAYER,ROW,COL  LAYER,ROW,COL  LAYER,ROW,COL  LAYER,ROW,COL  LAYER,ROW,COL
 ---------------------------------------------------------------------------
  1  0.1346E-01  0 -0.3696E-02  0 -0.2336E-02  0  0.1043E-01  0 -0.1089E-01
   ( 15,  1, 86)  ( 17,  1, 89)  (  8,  1, 12)  ( 11,  1, 59)  ( 11,  1, 59)
  0 -0.2250E-02  0 -0.9176E-03  1  0.6519E-03
   ( 11,  1, 68)  ( 11,  1, 54)  ( 11,  1, 53)

 MAXIMUM RESIDUAL FOR EACH ITERATION (1 INDICATES THE FIRST INNER ITERATION):

    RESIDUAL       RESIDUAL       RESIDUAL       RESIDUAL       RESIDUAL    
   LAYER,ROW,COL  LAYER,ROW,COL  LAYER,ROW,COL  LAYER,ROW,COL  LAYER,ROW,COL
 ---------------------------------------------------------------------------
  1  0.1325E+06  0 -0.9222E+05  0 -0.9071E+05  0 -0.1932E+05  0  -4857.    
   ( 21,  1, 89)  ( 19,  1, 89)  ( 19,  1, 89)  ( 19,  1, 89)  ( 17,  1, 87)
  0   2898.      0   2367.      1   2050.    
   ( 22,  1, 87)  ( 22,  1, 87)  ( 22,  1, 87)


 FLOW MODEL IS TRANSIENT
 FLOW MODEL CONTAINS CONSTANT-HEAD CELLS


 MAXIMUM STEPSIZE DURING WHICH ANY PARTICLE CANNOT MOVE MORE THAN ONE CELL
 =  12.84    (WHEN MIN. R.F.=1)  AT K=  17, I=   1, J=  90

 MAXIMUM STEPSIZE WHICH MEETS STABILITY CRITERION OF THE ADVECTION TERM
 (FOR PURE FINITE-DIFFERENCE OPTION, MIXELM=0) 
 =  8.025    (WHEN MIN. R.F.=1)  AT K=  16, I=   1, J=  90


 TOTAL NUMBER OF POINT SOURCES/SINKS PRESENT IN THE FLOW MODEL =    30

 MAXIMUM STEPSIZE WHICH MEETS STABILITY CRITERION OF THE SINK & SOURCE TERM
 =  12.19    (WHEN MIN. R.F.=1)  AT K=  17, I=   1, J=  91

 MAXIMUM STEPSIZE WHICH MEETS STABILITY CRITERION OF THE DISPERSION TERM
 =  4.029    (WHEN MIN. R.F.=1)  AT K=  17, I=   1, J=  90
     1 CALLS TO GCG PACKAGE FOR TRANSPORT TIME STEP 183 IN FLOW TIME STEP   1 STRESS PERIOD   1
     8 TOTAL ITERATIONS
     1 CALLS TO GCG PACKAGE FOR TRANSPORT TIME STEP 183 IN FLOW TIME STEP   1 STRESS PERIOD   1
     9 TOTAL ITERATIONS
 
 SOLVING FOR HEAD 


     2 CALLS TO PCG ROUTINE FOR TIME STEP   1 IN STRESS PERIOD    1
     8 TOTAL ITERATIONS

 MAXIMUM HEAD CHANGE FOR EACH ITERATION (1 INDICATES THE FIRST INNER ITERATION):

    HEAD CHANGE    HEAD CHANGE    HEAD CHANGE    HEAD CHANGE    HEAD CHANGE 
   LAYER,ROW,COL  LAYER,ROW,COL  LAYER,ROW,COL  LAYER,ROW,COL  LAYER,ROW,COL
 ---------------------------------------------------------------------------
  1 -0.1369E-01  0  0.4671E-02  0  0.3612E-02  0 -0.1276E-01  0  0.1019E-01
   ( 15,  1, 86)  ( 11,  1, 53)  (  8,  1, 12)  ( 11,  1, 53)  ( 11,  1, 53)
  0 -0.1957E-02  0 -0.9717E-03  1  0.6988E-03
   (  7,  1, 33)  ( 11,  1, 52)  ( 11,  1, 50)

 MAXIMUM RESIDUAL FOR EACH ITERATION (1 INDICATES THE FIRST INNER ITERATION):

    RESIDUAL       RESIDUAL       RESIDUAL       RESIDUAL       RESIDUAL    
   LAYER,ROW,COL  LAYER,ROW,COL  LAYER,ROW,COL  LAYER,ROW,COL  LAYER,ROW,COL
 ---------------------------------------------------------------------------
  1 -0.1369E+06  0  0.9776E+05  0  0.9686E+05  0  0.5530E+05  0   5666.    
   ( 21,  1, 89)  ( 19,  1, 89)  ( 19,  1, 89)  ( 19,  1, 89)  ( 17,  1, 87)
  0  -2714.      0  -2560.      1  -1766.    
   ( 22,  1, 87)  ( 22,  1, 87)  ( 22,  1, 87)


 FLOW MODEL IS TRANSIENT
 FLOW MODEL CONTAINS CONSTANT-HEAD CELLS


 MAXIMUM STEPSIZE DURING WHICH ANY PARTICLE CANNOT MOVE MORE THAN ONE CELL
 =  13.15    (WHEN MIN. R.F.=1)  AT K=  17, I=   1, J=  90

 MAXIMUM STEPSIZE WHICH MEETS STABILITY CRITERION OF THE ADVECTION TERM
 (FOR PURE FINITE-DIFFERENCE OPTION, MIXELM=0) 
 =  7.974    (WHEN MIN. R.F.=1)  AT K=  16, I=   1, J=  90


 TOTAL NUMBER OF POINT SOURCES/SINKS PRESENT IN THE FLOW MODEL =    30

 MAXIMUM STEPSIZE WHICH MEETS STABILITY CRITERION OF THE SINK & SOURCE TERM
 =  12.08    (WHEN MIN. R.F.=1)  AT K=  17, I=   1, J=  91

 MAXIMUM STEPSIZE WHICH MEETS STABILITY CRITERION OF THE DISPERSION TERM
 =  4.341    (WHEN MIN. R.F.=1)  AT K=  17, I=   1, J=  90
     1 CALLS TO GCG PACKAGE FOR TRANSPORT TIME STEP 184 IN FLOW TIME STEP   1 STRESS PERIOD   1
    10 TOTAL ITERATIONS
     1 CALLS TO GCG PACKAGE FOR TRANSPORT TIME STEP 184 IN FLOW TIME STEP   1 STRESS PERIOD   1
     9 TOTAL ITERATIONS
 
 SOLVING FOR HEAD 


     2 CALLS TO PCG ROUTINE FOR TIME STEP   1 IN STRESS PERIOD    1
     9 TOTAL ITERATIONS

 MAXIMUM HEAD CHANGE FOR EACH ITERATION (1 INDICATES THE FIRST INNER ITERATION):

    HEAD CHANGE    HEAD CHANGE    HEAD CHANGE    HEAD CHANGE    HEAD CHANGE 
   LAYER,ROW,COL  LAYER,ROW,COL  LAYER,ROW,COL  LAYER,ROW,COL  LAYER,ROW,COL
 ---------------------------------------------------------------------------
  1  0.1383E-01  0  0.9409E-02  0 -0.4618E-02  0 -0.1049E-01  0 -0.5841E-02
   ( 15,  1, 86)  ( 11,  1, 50)  (  8,  1, 12)  ( 11,  1, 51)  ( 10,  1, 55)
  0  0.2693E-02  0 -0.1316E-02  0 -0.9121E-03  1  0.6236E-03
   ( 11,  1, 51)  ( 11,  1, 54)  ( 11,  1, 66)  ( 11,  1, 66)

 MAXIMUM RESIDUAL FOR EACH ITERATION (1 INDICATES THE FIRST INNER ITERATION):

    RESIDUAL       RESIDUAL       RESIDUAL       RESIDUAL       RESIDUAL    
   LAYER,ROW,COL  LAYER,ROW,COL  LAYER,ROW,COL  LAYER,ROW,COL  LAYER,ROW,COL
 ---------------------------------------------------------------------------
  1  0.1356E+06  0 -0.9648E+05  0 -0.9578E+05  0 -0.8023E+05  0   6396.    
   ( 21,  1, 89)  ( 19,  1, 89)  ( 19,  1, 89)  ( 19,  1, 89)  ( 17,  1, 88)
  0   3135.      0   2564.      0   1383.      1   1214.    
   ( 17,  1, 88)  ( 22,  1, 87)  ( 22,  1, 87)  ( 22,  1, 87)


 FLOW MODEL IS TRANSIENT
 FLOW MODEL CONTAINS CONSTANT-HEAD CELLS


 MAXIMUM STEPSIZE DURING WHICH ANY PARTICLE CANNOT MOVE MORE THAN ONE CELL
 =  12.86    (WHEN MIN. R.F.=1)  AT K=  17, I=   1, J=  90

 MAXIMUM STEPSIZE WHICH MEETS STABILITY CRITERION OF THE ADVECTION TERM
 (FOR PURE FINITE-DIFFERENCE OPTION, MIXELM=0) 
 =  8.038    (WHEN MIN. R.F.=1)  AT K=  16, I=   1, J=  90


 TOTAL NUMBER OF POINT SOURCES/SINKS PRESENT IN THE FLOW MODEL =    30

 MAXIMUM STEPSIZE WHICH MEETS STABILITY CRITERION OF THE SINK & SOURCE TERM
 =  12.20    (WHEN MIN. R.F.=1)  AT K=  17, I=   1, J=  91

 MAXIMUM STEPSIZE WHICH MEETS STABILITY CRITERION OF THE DISPERSION TERM
 =  4.029    (WHEN MIN. R.F.=1)  AT K=  17, I=   1, J=  90
     1 CALLS TO GCG PACKAGE FOR TRANSPORT TIME STEP 185 IN FLOW TIME STEP   1 STRESS PERIOD   1
     8 TOTAL ITERATIONS
  MAXIMUM CONCENTRATION CHANGES FOR EACH ITERATION:
  MAX. CHANGE LAYER,ROW,COL MAX. CHANGE LAYER,ROW,COL MAX. CHANGE LAYER,ROW,COL MAX. CHANGE LAYER,ROW,COL MAX. CHANGE LAYER,ROW,COL
 ------------------------------------------------------------------------------------------------------------------------------------
   0.5203E-01 ( 20,  1, 87)  0.4315E-02 ( 19,  1, 89)  0.2059E-02 ( 17,  1, 86)  0.4860E-03 ( 20,  1, 89)  0.8844E-04 ( 16,  1, 89)
   0.2082E-04 ( 20,  1, 89)  0.2297E-04 ( 16,  1, 90)  0.6641E-06 ( 17,  1, 90)
     1 CALLS TO GCG PACKAGE FOR TRANSPORT TIME STEP 185 IN FLOW TIME STEP   1 STRESS PERIOD   1
     9 TOTAL ITERATIONS
  MAXIMUM CONCENTRATION CHANGES FOR EACH ITERATION:
  MAX. CHANGE LAYER,ROW,COL MAX. CHANGE LAYER,ROW,COL MAX. CHANGE LAYER,ROW,COL MAX. CHANGE LAYER,ROW,COL MAX. CHANGE LAYER,ROW,COL
 ------------------------------------------------------------------------------------------------------------------------------------
   0.6322E-01 ( 20,  1, 87)  0.5752E-02 ( 19,  1, 86)  0.3390E-02 ( 19,  1, 89)  0.2145E-02 ( 19,  1, 89)  0.5824E-05 ( 16,  1, 89)
   0.7606E-04 ( 16,  1, 89)  0.1627E-04 ( 16,  1, 90)  0.1024E-05 ( 17,  1, 90)  0.1346E-06 ( 17,  1, 90)
 
 SOLVING FOR HEAD 


     2 CALLS TO PCG ROUTINE FOR TIME STEP   1 IN STRESS PERIOD    1
     8 TOTAL ITERATIONS

 MAXIMUM HEAD CHANGE FOR EACH ITERATION (1 INDICATES THE FIRST INNER ITERATION):

    HEAD CHANGE    HEAD CHANGE    HEAD CHANGE    HEAD CHANGE    HEAD CHANGE 
   LAYER,ROW,COL  LAYER,ROW,COL  LAYER,ROW,COL  LAYER,ROW,COL  LAYER,ROW,COL
 ---------------------------------------------------------------------------
  1 -0.1355E-01  0  0.4046E-02  0  0.3426E-02  0 -0.8680E-02  0  0.9455E-02
   ( 15,  1, 86)  ( 17,  1, 89)  (  8,  1, 12)  ( 11,  1, 35)  ( 11,  1, 35)
  0  0.1575E-02  0  0.9027E-03  1  0.4836E-03
   (  6,  1, 43)  ( 11,  1, 43)  ( 11,  1, 67)

 MAXIMUM RESIDUAL FOR EACH ITERATION (1 INDICATES THE FIRST INNER ITERATION):

    RESIDUAL       RESIDUAL       RESIDUAL       RESIDUAL       RESIDUAL    
   LAYER,ROW,COL  LAYER,ROW,COL  LAYER,ROW,COL  LAYER,ROW,COL  LAYER,ROW,COL
 ---------------------------------------------------------------------------
  1 -0.1329E+06  0  0.9394E+05  0  0.9308E+05  0  0.1955E+05  0  -4921.    
   ( 21,  1, 89)  ( 19,  1, 89)  ( 19,  1, 89)  ( 19,  1, 89)  ( 17,  1, 88)
  0  -2795.      0  -2517.      1  -1958.    
   ( 22,  1, 87)  ( 22,  1, 87)  ( 22,  1, 87)


 FLOW MODEL IS TRANSIENT
 FLOW MODEL CONTAINS CONSTANT-HEAD CELLS


 MAXIMUM STEPSIZE DURING WHICH ANY PARTICLE CANNOT MOVE MORE THAN ONE CELL
 =  13.24    (WHEN MIN. R.F.=1)  AT K=  17, I=   1, J=  90

 MAXIMUM STEPSIZE WHICH MEETS STABILITY CRITERION OF THE ADVECTION TERM
 (FOR PURE FINITE-DIFFERENCE OPTION, MIXELM=0) 
 =  8.006    (WHEN MIN. R.F.=1)  AT K=  16, I=   1, J=  90


 TOTAL NUMBER OF POINT SOURCES/SINKS PRESENT IN THE FLOW MODEL =    30

 MAXIMUM STEPSIZE WHICH MEETS STABILITY CRITERION OF THE SINK & SOURCE TERM
 =  12.17    (WHEN MIN. R.F.=1)  AT K=  17, I=   1, J=  91

 MAXIMUM STEPSIZE WHICH MEETS STABILITY CRITERION OF THE DISPERSION TERM
 =  4.383    (WHEN MIN. R.F.=1)  AT K=  17, I=   1, J=  90
     1 CALLS TO GCG PACKAGE FOR TRANSPORT TIME STEP 186 IN FLOW TIME STEP   1 STRESS PERIOD   1
     8 TOTAL ITERATIONS
     1 CALLS TO GCG PACKAGE FOR TRANSPORT TIME STEP 186 IN FLOW TIME STEP   1 STRESS PERIOD   1
     9 TOTAL ITERATIONS
 
 SOLVING FOR HEAD 


     2 CALLS TO PCG ROUTINE FOR TIME STEP   1 IN STRESS PERIOD    1
     9 TOTAL ITERATIONS

 MAXIMUM HEAD CHANGE FOR EACH ITERATION (1 INDICATES THE FIRST INNER ITERATION):

    HEAD CHANGE    HEAD CHANGE    HEAD CHANGE    HEAD CHANGE    HEAD CHANGE 
   LAYER,ROW,COL  LAYER,ROW,COL  LAYER,ROW,COL  LAYER,ROW,COL  LAYER,ROW,COL
 ---------------------------------------------------------------------------
  1  0.1369E-01  0  0.7069E-02  0 -0.3882E-02  0 -0.8526E-02  0  0.6338E-02
   ( 15,  1, 86)  (  6,  1, 48)  (  7,  1, 12)  (  7,  1, 50)  (  7,  1, 52)
  0  0.4996E-02  0 -0.1186E-02  0 -0.7630E-03  1  0.5801E-03
   ( 11,  1, 35)  ( 11,  1, 35)  ( 11,  1, 49)  ( 11,  1, 49)

 MAXIMUM RESIDUAL FOR EACH ITERATION (1 INDICATES THE FIRST INNER ITERATION):

    RESIDUAL       RESIDUAL       RESIDUAL       RESIDUAL       RESIDUAL    
   LAYER,ROW,COL  LAYER,ROW,COL  LAYER,ROW,COL  LAYER,ROW,COL  LAYER,ROW,COL
 ---------------------------------------------------------------------------
  1  0.1364E+06  0 -0.9672E+05  0 -0.9588E+05  0 -0.7830E+05  0  -6710.    
   ( 21,  1, 89)  ( 19,  1, 89)  ( 19,  1, 89)  ( 19,  1, 89)  ( 17,  1, 87)
  0   3188.      0   2543.      0   1501.      1   1338.    
   ( 17,  1, 88)  ( 22,  1, 87)  ( 22,  1, 87)  ( 22,  1, 87)


 FLOW MODEL IS TRANSIENT
 FLOW MODEL CONTAINS CONSTANT-HEAD CELLS


 MAXIMUM STEPSIZE DURING WHICH ANY PARTICLE CANNOT MOVE MORE THAN ONE CELL
 =  12.89    (WHEN MIN. R.F.=1)  AT K=  17, I=   1, J=  90

 MAXIMUM STEPSIZE WHICH MEETS STABILITY CRITERION OF THE ADVECTION TERM
 (FOR PURE FINITE-DIFFERENCE OPTION, MIXELM=0) 
 =  8.053    (WHEN MIN. R.F.=1)  AT K=  16, I=   1, J=  90


 TOTAL NUMBER OF POINT SOURCES/SINKS PRESENT IN THE FLOW MODEL =    30

 MAXIMUM STEPSIZE WHICH MEETS STABILITY CRITERION OF THE SINK & SOURCE TERM
 =  12.26    (WHEN MIN. R.F.=1)  AT K=  17, I=   1, J=  91

 MAXIMUM STEPSIZE WHICH MEETS STABILITY CRITERION OF THE DISPERSION TERM
 =  4.041    (WHEN MIN. R.F.=1)  AT K=  17, I=   1, J=  90
     1 CALLS TO GCG PACKAGE FOR TRANSPORT TIME STEP 187 IN FLOW TIME STEP   1 STRESS PERIOD   1
     8 TOTAL ITERATIONS
     1 CALLS TO GCG PACKAGE FOR TRANSPORT TIME STEP 187 IN FLOW TIME STEP   1 STRESS PERIOD   1
     9 TOTAL ITERATIONS
 
 SOLVING FOR HEAD 


     2 CALLS TO PCG ROUTINE FOR TIME STEP   1 IN STRESS PERIOD    1
     9 TOTAL ITERATIONS

 MAXIMUM HEAD CHANGE FOR EACH ITERATION (1 INDICATES THE FIRST INNER ITERATION):

    HEAD CHANGE    HEAD CHANGE    HEAD CHANGE    HEAD CHANGE    HEAD CHANGE 
   LAYER,ROW,COL  LAYER,ROW,COL  LAYER,ROW,COL  LAYER,ROW,COL  LAYER,ROW,COL
 ---------------------------------------------------------------------------
  1 -0.1373E-01  0  0.4214E-02  0  0.4030E-02  0 -0.9548E-02  0  0.9713E-02
   ( 15,  1, 86)  ( 17,  1, 89)  (  8,  1, 12)  ( 11,  1, 53)  ( 11,  1, 53)
  0  0.1704E-02  0  0.1325E-02  0  0.8375E-03  1 -0.4022E-03
   ( 11,  1, 68)  ( 11,  1, 70)  ( 11,  1, 61)  ( 11,  1, 62)

 MAXIMUM RESIDUAL FOR EACH ITERATION (1 INDICATES THE FIRST INNER ITERATION):

    RESIDUAL       RESIDUAL       RESIDUAL       RESIDUAL       RESIDUAL    
   LAYER,ROW,COL  LAYER,ROW,COL  LAYER,ROW,COL  LAYER,ROW,COL  LAYER,ROW,COL
 ---------------------------------------------------------------------------
  1 -0.1367E+06  0  0.9704E+05  0  0.9626E+05  0  0.2473E+05  0  -5298.    
   ( 21,  1, 89)  ( 19,  1, 89)  ( 19,  1, 89)  ( 19,  1, 89)  ( 17,  1, 88)
  0  -2808.      0  -1898.      0  -631.3      1  -540.4    
   ( 22,  1, 87)  ( 22,  1, 87)  ( 22,  1, 87)  ( 22,  1, 87)


 FLOW MODEL IS TRANSIENT
 FLOW MODEL CONTAINS CONSTANT-HEAD CELLS


 MAXIMUM STEPSIZE DURING WHICH ANY PARTICLE CANNOT MOVE MORE THAN ONE CELL
 =  13.23    (WHEN MIN. R.F.=1)  AT K=  17, I=   1, J=  90

 MAXIMUM STEPSIZE WHICH MEETS STABILITY CRITERION OF THE ADVECTION TERM
 (FOR PURE FINITE-DIFFERENCE OPTION, MIXELM=0) 
 =  8.001    (WHEN MIN. R.F.=1)  AT K=  16, I=   1, J=  90


 TOTAL NUMBER OF POINT SOURCES/SINKS PRESENT IN THE FLOW MODEL =    30

 MAXIMUM STEPSIZE WHICH MEETS STABILITY CRITERION OF THE SINK & SOURCE TERM
 =  12.18    (WHEN MIN. R.F.=1)  AT K=  17, I=   1, J=  91

 MAXIMUM STEPSIZE WHICH MEETS STABILITY CRITERION OF THE DISPERSION TERM
 =  4.380    (WHEN MIN. R.F.=1)  AT K=  17, I=   1, J=  90
     1 CALLS TO GCG PACKAGE FOR TRANSPORT TIME STEP 188 IN FLOW TIME STEP   1 STRESS PERIOD   1
     9 TOTAL ITERATIONS
     1 CALLS TO GCG PACKAGE FOR TRANSPORT TIME STEP 188 IN FLOW TIME STEP   1 STRESS PERIOD   1
     9 TOTAL ITERATIONS
 
 SOLVING FOR HEAD 


     2 CALLS TO PCG ROUTINE FOR TIME STEP   1 IN STRESS PERIOD    1
     9 TOTAL ITERATIONS

 MAXIMUM HEAD CHANGE FOR EACH ITERATION (1 INDICATES THE FIRST INNER ITERATION):

    HEAD CHANGE    HEAD CHANGE    HEAD CHANGE    HEAD CHANGE    HEAD CHANGE 
   LAYER,ROW,COL  LAYER,ROW,COL  LAYER,ROW,COL  LAYER,ROW,COL  LAYER,ROW,COL
 ---------------------------------------------------------------------------
  1  0.1335E-01  0 -0.3845E-02  0 -0.2412E-02  0 -0.9431E-02  0  0.9658E-02
   ( 15,  1, 86)  ( 17,  1, 89)  (  8,  1, 12)  ( 11,  1, 68)  ( 11,  1, 68)
  0 -0.1667E-02  0  0.1231E-02  0 -0.8550E-03  1  0.6437E-03
   ( 11,  1, 63)  ( 11,  1, 62)  ( 11,  1, 60)  ( 11,  1, 68)

 MAXIMUM RESIDUAL FOR EACH ITERATION (1 INDICATES THE FIRST INNER ITERATION):

    RESIDUAL       RESIDUAL       RESIDUAL       RESIDUAL       RESIDUAL    
   LAYER,ROW,COL  LAYER,ROW,COL  LAYER,ROW,COL  LAYER,ROW,COL  LAYER,ROW,COL
 ---------------------------------------------------------------------------
  1  0.1357E+06  0 -0.9610E+05  0 -0.9366E+05  0 -0.2763E+05  0  -5747.    
   ( 21,  1, 89)  ( 19,  1, 89)  ( 19,  1, 89)  ( 19,  1, 89)  ( 17,  1, 87)
  0   2828.      0   2568.      0   833.8      1   700.0    
   ( 22,  1, 87)  ( 22,  1, 87)  ( 22,  1, 87)  ( 22,  1, 87)


 FLOW MODEL IS TRANSIENT
 FLOW MODEL CONTAINS CONSTANT-HEAD CELLS


 MAXIMUM STEPSIZE DURING WHICH ANY PARTICLE CANNOT MOVE MORE THAN ONE CELL
 =  12.84    (WHEN MIN. R.F.=1)  AT K=  17, I=   1, J=  90

 MAXIMUM STEPSIZE WHICH MEETS STABILITY CRITERION OF THE ADVECTION TERM
 (FOR PURE FINITE-DIFFERENCE OPTION, MIXELM=0) 
 =  8.029    (WHEN MIN. R.F.=1)  AT K=  16, I=   1, J=  90


 TOTAL NUMBER OF POINT SOURCES/SINKS PRESENT IN THE FLOW MODEL =    30

 MAXIMUM STEPSIZE WHICH MEETS STABILITY CRITERION OF THE SINK & SOURCE TERM
 =  12.19    (WHEN MIN. R.F.=1)  AT K=  17, I=   1, J=  91

 MAXIMUM STEPSIZE WHICH MEETS STABILITY CRITERION OF THE DISPERSION TERM
 =  4.021    (WHEN MIN. R.F.=1)  AT K=  17, I=   1, J=  90
     1 CALLS TO GCG PACKAGE FOR TRANSPORT TIME STEP 189 IN FLOW TIME STEP   1 STRESS PERIOD   1
     8 TOTAL ITERATIONS
     1 CALLS TO GCG PACKAGE FOR TRANSPORT TIME STEP 189 IN FLOW TIME STEP   1 STRESS PERIOD   1
     9 TOTAL ITERATIONS
 
 SOLVING FOR HEAD 


     2 CALLS TO PCG ROUTINE FOR TIME STEP   1 IN STRESS PERIOD    1
     9 TOTAL ITERATIONS

 MAXIMUM HEAD CHANGE FOR EACH ITERATION (1 INDICATES THE FIRST INNER ITERATION):

    HEAD CHANGE    HEAD CHANGE    HEAD CHANGE    HEAD CHANGE    HEAD CHANGE 
   LAYER,ROW,COL  LAYER,ROW,COL  LAYER,ROW,COL  LAYER,ROW,COL  LAYER,ROW,COL
 ---------------------------------------------------------------------------
  1 -0.1346E-01  0  0.3738E-02  0  0.3044E-02  0  0.1386E-01  0 -0.1485E-01
   ( 15,  1, 86)  ( 17,  1, 89)  (  8,  1, 12)  ( 11,  1, 50)  ( 11,  1, 50)
  0  0.1989E-02  0  0.1052E-02  0  0.5366E-03  1 -0.5574E-03
   ( 11,  1, 50)  ( 11,  1, 63)  ( 11,  1, 36)  ( 11,  1, 63)

 MAXIMUM RESIDUAL FOR EACH ITERATION (1 INDICATES THE FIRST INNER ITERATION):

    RESIDUAL       RESIDUAL       RESIDUAL       RESIDUAL       RESIDUAL    
   LAYER,ROW,COL  LAYER,ROW,COL  LAYER,ROW,COL  LAYER,ROW,COL  LAYER,ROW,COL
 ---------------------------------------------------------------------------
  1 -0.1336E+06  0  0.9358E+05  0  0.9261E+05  0  0.2461E+05  0   5241.    
   ( 21,  1, 89)  ( 19,  1, 89)  ( 19,  1, 89)  ( 19,  1, 89)  ( 17,  1, 87)
  0  -2808.      0  -2496.      0  -934.9      1  -819.3    
   ( 22,  1, 87)  ( 22,  1, 87)  ( 22,  1, 87)  ( 22,  1, 87)


 FLOW MODEL IS TRANSIENT
 FLOW MODEL CONTAINS CONSTANT-HEAD CELLS


 MAXIMUM STEPSIZE DURING WHICH ANY PARTICLE CANNOT MOVE MORE THAN ONE CELL
 =  13.21    (WHEN MIN. R.F.=1)  AT K=  17, I=   1, J=  90

 MAXIMUM STEPSIZE WHICH MEETS STABILITY CRITERION OF THE ADVECTION TERM
 (FOR PURE FINITE-DIFFERENCE OPTION, MIXELM=0) 
 =  8.001    (WHEN MIN. R.F.=1)  AT K=  16, I=   1, J=  90


 TOTAL NUMBER OF POINT SOURCES/SINKS PRESENT IN THE FLOW MODEL =    30

 MAXIMUM STEPSIZE WHICH MEETS STABILITY CRITERION OF THE SINK & SOURCE TERM
 =  12.17    (WHEN MIN. R.F.=1)  AT K=  17, I=   1, J=  91

 MAXIMUM STEPSIZE WHICH MEETS STABILITY CRITERION OF THE DISPERSION TERM
 =  4.367    (WHEN MIN. R.F.=1)  AT K=  17, I=   1, J=  90
     1 CALLS TO GCG PACKAGE FOR TRANSPORT TIME STEP 190 IN FLOW TIME STEP   1 STRESS PERIOD   1
     7 TOTAL ITERATIONS
  MAXIMUM CONCENTRATION CHANGES FOR EACH ITERATION:
  MAX. CHANGE LAYER,ROW,COL MAX. CHANGE LAYER,ROW,COL MAX. CHANGE LAYER,ROW,COL MAX. CHANGE LAYER,ROW,COL MAX. CHANGE LAYER,ROW,COL
 ------------------------------------------------------------------------------------------------------------------------------------
   0.4936E-01 ( 20,  1, 87)  0.3339E-02 ( 19,  1, 87)  0.2274E-02 ( 18,  1, 87)  0.2209E-03 ( 16,  1, 88)  0.1431E-03 ( 16,  1, 89)
   0.3073E-04 ( 16,  1, 90)  0.1870E-06 ( 21,  1, 78)
     1 CALLS TO GCG PACKAGE FOR TRANSPORT TIME STEP 190 IN FLOW TIME STEP   1 STRESS PERIOD   1
     9 TOTAL ITERATIONS
  MAXIMUM CONCENTRATION CHANGES FOR EACH ITERATION:
  MAX. CHANGE LAYER,ROW,COL MAX. CHANGE LAYER,ROW,COL MAX. CHANGE LAYER,ROW,COL MAX. CHANGE LAYER,ROW,COL MAX. CHANGE LAYER,ROW,COL
 ------------------------------------------------------------------------------------------------------------------------------------
   0.5870E-01 ( 19,  1, 88)  0.6959E-02 ( 19,  1, 87)  0.2793E-02 ( 18,  1, 87)  0.1053E-02 ( 18,  1, 87)  0.1344E-03 ( 16,  1, 89)
   0.4039E-04 ( 17,  1, 90)  0.7864E-05 ( 17,  1, 90)  0.1067E-05 ( 17,  1, 90)  0.6655E-07 ( 17,  1, 89)



 >>>>>>>>>>>>>>>>>>>>>>>>>>>>>>>>>>>>>>>>>>>>>>>>>>>>>>>FOR COMPONENT NO. 01<<<<<<<<<<<<<<<<<<<<<<<<<<<<<<<<<<<<<<<<<<<<<<<<<<<<<<<


                                            -------------------------------------------
                                                      TRANSPORT STEP NO.  190
                                            -------------------------------------------

 TOTAL ELAPSED TIME SINCE BEGINNING OF SIMULATION =   9500.000    D   
 .....................................................................

                     CUMMULATIVE MASS BUDGETS AT END OF TRANSPORT STEP  190, TIME STEP    1, STRESS PERIOD    1
                     ------------------------------------------------------------------------------------------

                                                             IN                           OUT
                                                      ----------------             ----------------
                               CONSTANT CONCENTRATION:    0.000000                    0.000000    
                                        CONSTANT HEAD:   0.3762170E+09              -0.3760464E+09
                                                WELLS:    0.000000                    0.000000    
                                             RECHARGE:    0.000000                    0.000000    
                               1ST/0TH ORDER REACTION:    0.000000                    0.000000    
                                MASS STORAGE (SOLUTE):   0.5269566E+08              -0.5286635E+08
                            ---------------------------------------------------------------------------
                                              [TOTAL]:   0.4289131E+09 KG           -0.4289132E+09 KG  

                                                          NET (IN - OUT):   -65.86171    
                                                   DISCREPANCY (PERCENT):  -0.1535549E-04



 >>>>>>>>>>>>>>>>>>>>>>>>>>>>>>>>>>>>>>>>>>>>>>>>>>>>>>>FOR COMPONENT NO. 02<<<<<<<<<<<<<<<<<<<<<<<<<<<<<<<<<<<<<<<<<<<<<<<<<<<<<<<


                                            -------------------------------------------
                                                      TRANSPORT STEP NO.  190
                                            -------------------------------------------

 TOTAL ELAPSED TIME SINCE BEGINNING OF SIMULATION =   9500.000    D   
 .....................................................................

                     CUMMULATIVE MASS BUDGETS AT END OF TRANSPORT STEP  190, TIME STEP    1, STRESS PERIOD    1
                     ------------------------------------------------------------------------------------------

                                                             IN                           OUT
                                                      ----------------             ----------------
                               CONSTANT CONCENTRATION:    0.000000                    0.000000    
                                        CONSTANT HEAD:    0.000000                  -0.2842070E+11
                                                WELLS:    0.000000                    0.000000    
                                             RECHARGE:    0.000000                    0.000000    
                               1ST/0TH ORDER REACTION:   0.1572250E+12                0.000000    
                                MASS STORAGE (SOLUTE):   0.5904579E+10              -0.1347089E+12
                            ---------------------------------------------------------------------------
                                              [TOTAL]:   0.1631297E+12 KG           -0.1631297E+12 KG  

                                                          NET (IN - OUT):   -1846.754    
                                                   DISCREPANCY (PERCENT):  -0.1132077E-05
 
 SOLVING FOR HEAD 


     2 CALLS TO PCG ROUTINE FOR TIME STEP   1 IN STRESS PERIOD    1
     8 TOTAL ITERATIONS

 MAXIMUM HEAD CHANGE FOR EACH ITERATION (1 INDICATES THE FIRST INNER ITERATION):

    HEAD CHANGE    HEAD CHANGE    HEAD CHANGE    HEAD CHANGE    HEAD CHANGE 
   LAYER,ROW,COL  LAYER,ROW,COL  LAYER,ROW,COL  LAYER,ROW,COL  LAYER,ROW,COL
 ---------------------------------------------------------------------------
  1  0.1353E-01  0 -0.3749E-02  0 -0.2307E-02  0  0.8735E-02  0  0.8786E-02
   ( 15,  1, 86)  ( 17,  1, 89)  (  7,  1, 12)  ( 11,  1, 35)  (  8,  1, 43)
  0 -0.1505E-02  0  0.8502E-03  1 -0.7365E-03
   ( 11,  1, 62)  ( 11,  1, 62)  ( 11,  1, 62)

 MAXIMUM RESIDUAL FOR EACH ITERATION (1 INDICATES THE FIRST INNER ITERATION):

    RESIDUAL       RESIDUAL       RESIDUAL       RESIDUAL       RESIDUAL    
   LAYER,ROW,COL  LAYER,ROW,COL  LAYER,ROW,COL  LAYER,ROW,COL  LAYER,ROW,COL
 ---------------------------------------------------------------------------
  1  0.1318E+06  0 -0.9229E+05  0 -0.9062E+05  0 -0.3324E+05  0  -5902.    
   ( 21,  1, 89)  ( 19,  1, 89)  ( 19,  1, 89)  ( 19,  1, 89)  ( 17,  1, 87)
  0   2897.      0   2593.      1   2042.    
   ( 22,  1, 87)  ( 22,  1, 87)  ( 22,  1, 87)


 FLOW MODEL IS TRANSIENT
 FLOW MODEL CONTAINS CONSTANT-HEAD CELLS


 MAXIMUM STEPSIZE DURING WHICH ANY PARTICLE CANNOT MOVE MORE THAN ONE CELL
 =  12.85    (WHEN MIN. R.F.=1)  AT K=  17, I=   1, J=  90

 MAXIMUM STEPSIZE WHICH MEETS STABILITY CRITERION OF THE ADVECTION TERM
 (FOR PURE FINITE-DIFFERENCE OPTION, MIXELM=0) 
 =  8.031    (WHEN MIN. R.F.=1)  AT K=  16, I=   1, J=  90


 TOTAL NUMBER OF POINT SOURCES/SINKS PRESENT IN THE FLOW MODEL =    30

 MAXIMUM STEPSIZE WHICH MEETS STABILITY CRITERION OF THE SINK & SOURCE TERM
 =  12.21    (WHEN MIN. R.F.=1)  AT K=  17, I=   1, J=  91

 MAXIMUM STEPSIZE WHICH MEETS STABILITY CRITERION OF THE DISPERSION TERM
 =  4.032    (WHEN MIN. R.F.=1)  AT K=  17, I=   1, J=  90
     1 CALLS TO GCG PACKAGE FOR TRANSPORT TIME STEP 191 IN FLOW TIME STEP   1 STRESS PERIOD   1
     8 TOTAL ITERATIONS
     1 CALLS TO GCG PACKAGE FOR TRANSPORT TIME STEP 191 IN FLOW TIME STEP   1 STRESS PERIOD   1
     9 TOTAL ITERATIONS
 
 SOLVING FOR HEAD 


     2 CALLS TO PCG ROUTINE FOR TIME STEP   1 IN STRESS PERIOD    1
     9 TOTAL ITERATIONS

 MAXIMUM HEAD CHANGE FOR EACH ITERATION (1 INDICATES THE FIRST INNER ITERATION):

    HEAD CHANGE    HEAD CHANGE    HEAD CHANGE    HEAD CHANGE    HEAD CHANGE 
   LAYER,ROW,COL  LAYER,ROW,COL  LAYER,ROW,COL  LAYER,ROW,COL  LAYER,ROW,COL
 ---------------------------------------------------------------------------
  1 -0.1374E-01  0 -0.7334E-02  0  0.4175E-02  0 -0.1249E-01  0  0.1049E-01
   ( 15,  1, 86)  ( 11,  1, 63)  (  8,  1, 12)  ( 11,  1, 50)  ( 11,  1, 50)
  0  0.3535E-02  0 -0.1045E-02  0  0.7879E-03  1 -0.6037E-03
   ( 11,  1, 69)  (  7,  1, 40)  ( 11,  1, 51)  ( 11,  1, 51)

 MAXIMUM RESIDUAL FOR EACH ITERATION (1 INDICATES THE FIRST INNER ITERATION):

    RESIDUAL       RESIDUAL       RESIDUAL       RESIDUAL       RESIDUAL    
   LAYER,ROW,COL  LAYER,ROW,COL  LAYER,ROW,COL  LAYER,ROW,COL  LAYER,ROW,COL
 ---------------------------------------------------------------------------
  1 -0.1364E+06  0  0.9678E+05  0  0.9601E+05  0  0.7251E+05  0   6088.    
   ( 21,  1, 89)  ( 19,  1, 89)  ( 19,  1, 89)  ( 19,  1, 89)  ( 17,  1, 87)
  0  -3036.      0  -2586.      0  -1804.      1  -1589.    
   ( 17,  1, 88)  ( 22,  1, 87)  ( 22,  1, 87)  ( 22,  1, 87)


 FLOW MODEL IS TRANSIENT
 FLOW MODEL CONTAINS CONSTANT-HEAD CELLS


 MAXIMUM STEPSIZE DURING WHICH ANY PARTICLE CANNOT MOVE MORE THAN ONE CELL
 =  13.16    (WHEN MIN. R.F.=1)  AT K=  17, I=   1, J=  90

 MAXIMUM STEPSIZE WHICH MEETS STABILITY CRITERION OF THE ADVECTION TERM
 (FOR PURE FINITE-DIFFERENCE OPTION, MIXELM=0) 
 =  7.977    (WHEN MIN. R.F.=1)  AT K=  16, I=   1, J=  90


 TOTAL NUMBER OF POINT SOURCES/SINKS PRESENT IN THE FLOW MODEL =    30

 MAXIMUM STEPSIZE WHICH MEETS STABILITY CRITERION OF THE SINK & SOURCE TERM
 =  12.10    (WHEN MIN. R.F.=1)  AT K=  17, I=   1, J=  91

 MAXIMUM STEPSIZE WHICH MEETS STABILITY CRITERION OF THE DISPERSION TERM
 =  4.342    (WHEN MIN. R.F.=1)  AT K=  17, I=   1, J=  90
     1 CALLS TO GCG PACKAGE FOR TRANSPORT TIME STEP 192 IN FLOW TIME STEP   1 STRESS PERIOD   1
     8 TOTAL ITERATIONS
     1 CALLS TO GCG PACKAGE FOR TRANSPORT TIME STEP 192 IN FLOW TIME STEP   1 STRESS PERIOD   1
     8 TOTAL ITERATIONS
 
 SOLVING FOR HEAD 


     2 CALLS TO PCG ROUTINE FOR TIME STEP   1 IN STRESS PERIOD    1
     9 TOTAL ITERATIONS

 MAXIMUM HEAD CHANGE FOR EACH ITERATION (1 INDICATES THE FIRST INNER ITERATION):

    HEAD CHANGE    HEAD CHANGE    HEAD CHANGE    HEAD CHANGE    HEAD CHANGE 
   LAYER,ROW,COL  LAYER,ROW,COL  LAYER,ROW,COL  LAYER,ROW,COL  LAYER,ROW,COL
 ---------------------------------------------------------------------------
  1  0.1387E-01  0 -0.4217E-02  0 -0.4397E-02  0  0.8454E-02  0 -0.8003E-02
   ( 15,  1, 86)  ( 17,  1, 89)  (  8,  1, 12)  ( 11,  1, 52)  (  7,  1, 45)
  0  0.1582E-02  0 -0.1246E-02  0 -0.8179E-03  1  0.6505E-03
   (  8,  1, 41)  ( 11,  1, 70)  ( 11,  1, 56)  ( 11,  1, 56)

 MAXIMUM RESIDUAL FOR EACH ITERATION (1 INDICATES THE FIRST INNER ITERATION):

    RESIDUAL       RESIDUAL       RESIDUAL       RESIDUAL       RESIDUAL    
   LAYER,ROW,COL  LAYER,ROW,COL  LAYER,ROW,COL  LAYER,ROW,COL  LAYER,ROW,COL
 ---------------------------------------------------------------------------
  1  0.1349E+06  0 -0.9621E+05  0 -0.9552E+05  0 -0.3096E+05  0   5526.    
   ( 21,  1, 89)  ( 19,  1, 89)  ( 19,  1, 89)  ( 19,  1, 89)  ( 17,  1, 88)
  0   2749.      0   2526.      0   1102.      1   982.8    
   ( 22,  1, 87)  ( 22,  1, 87)  ( 22,  1, 87)  ( 22,  1, 87)


 FLOW MODEL IS TRANSIENT
 FLOW MODEL CONTAINS CONSTANT-HEAD CELLS


 MAXIMUM STEPSIZE DURING WHICH ANY PARTICLE CANNOT MOVE MORE THAN ONE CELL
 =  12.85    (WHEN MIN. R.F.=1)  AT K=  17, I=   1, J=  90

 MAXIMUM STEPSIZE WHICH MEETS STABILITY CRITERION OF THE ADVECTION TERM
 (FOR PURE FINITE-DIFFERENCE OPTION, MIXELM=0) 
 =  8.035    (WHEN MIN. R.F.=1)  AT K=  16, I=   1, J=  90


 TOTAL NUMBER OF POINT SOURCES/SINKS PRESENT IN THE FLOW MODEL =    30

 MAXIMUM STEPSIZE WHICH MEETS STABILITY CRITERION OF THE SINK & SOURCE TERM
 =  12.20    (WHEN MIN. R.F.=1)  AT K=  17, I=   1, J=  91

 MAXIMUM STEPSIZE WHICH MEETS STABILITY CRITERION OF THE DISPERSION TERM
 =  4.025    (WHEN MIN. R.F.=1)  AT K=  17, I=   1, J=  90
     1 CALLS TO GCG PACKAGE FOR TRANSPORT TIME STEP 193 IN FLOW TIME STEP   1 STRESS PERIOD   1
     8 TOTAL ITERATIONS
     1 CALLS TO GCG PACKAGE FOR TRANSPORT TIME STEP 193 IN FLOW TIME STEP   1 STRESS PERIOD   1
     9 TOTAL ITERATIONS
 
 SOLVING FOR HEAD 


     2 CALLS TO PCG ROUTINE FOR TIME STEP   1 IN STRESS PERIOD    1
     8 TOTAL ITERATIONS

 MAXIMUM HEAD CHANGE FOR EACH ITERATION (1 INDICATES THE FIRST INNER ITERATION):

    HEAD CHANGE    HEAD CHANGE    HEAD CHANGE    HEAD CHANGE    HEAD CHANGE 
   LAYER,ROW,COL  LAYER,ROW,COL  LAYER,ROW,COL  LAYER,ROW,COL  LAYER,ROW,COL
 ---------------------------------------------------------------------------
  1 -0.1347E-01  0  0.3919E-02  0  0.3051E-02  0 -0.8925E-02  0 -0.8552E-02
   ( 15,  1, 86)  ( 17,  1, 89)  (  8,  1, 12)  ( 11,  1, 54)  ( 11,  1, 65)
  0  0.1565E-02  0 -0.7856E-03  1  0.7069E-03
   ( 11,  1, 68)  ( 11,  1, 56)  ( 11,  1, 56)

 MAXIMUM RESIDUAL FOR EACH ITERATION (1 INDICATES THE FIRST INNER ITERATION):

    RESIDUAL       RESIDUAL       RESIDUAL       RESIDUAL       RESIDUAL    
   LAYER,ROW,COL  LAYER,ROW,COL  LAYER,ROW,COL  LAYER,ROW,COL  LAYER,ROW,COL
 ---------------------------------------------------------------------------
  1 -0.1319E+06  0  0.9299E+05  0  0.9204E+05  0  0.2677E+05  0   5735.    
   ( 21,  1, 89)  ( 19,  1, 89)  ( 19,  1, 89)  ( 19,  1, 89)  ( 17,  1, 87)
  0  -2859.      0  -2559.      1  -2056.    
   ( 22,  1, 87)  ( 22,  1, 87)  ( 22,  1, 87)


 FLOW MODEL IS TRANSIENT
 FLOW MODEL CONTAINS CONSTANT-HEAD CELLS


 MAXIMUM STEPSIZE DURING WHICH ANY PARTICLE CANNOT MOVE MORE THAN ONE CELL
 =  13.24    (WHEN MIN. R.F.=1)  AT K=  17, I=   1, J=  90

 MAXIMUM STEPSIZE WHICH MEETS STABILITY CRITERION OF THE ADVECTION TERM
 (FOR PURE FINITE-DIFFERENCE OPTION, MIXELM=0) 
 =  8.008    (WHEN MIN. R.F.=1)  AT K=  16, I=   1, J=  90


 TOTAL NUMBER OF POINT SOURCES/SINKS PRESENT IN THE FLOW MODEL =    30

 MAXIMUM STEPSIZE WHICH MEETS STABILITY CRITERION OF THE SINK & SOURCE TERM
 =  12.17    (WHEN MIN. R.F.=1)  AT K=  17, I=   1, J=  91

 MAXIMUM STEPSIZE WHICH MEETS STABILITY CRITERION OF THE DISPERSION TERM
 =  4.379    (WHEN MIN. R.F.=1)  AT K=  17, I=   1, J=  90
     1 CALLS TO GCG PACKAGE FOR TRANSPORT TIME STEP 194 IN FLOW TIME STEP   1 STRESS PERIOD   1
    10 TOTAL ITERATIONS
     1 CALLS TO GCG PACKAGE FOR TRANSPORT TIME STEP 194 IN FLOW TIME STEP   1 STRESS PERIOD   1
     9 TOTAL ITERATIONS
 
 SOLVING FOR HEAD 


     2 CALLS TO PCG ROUTINE FOR TIME STEP   1 IN STRESS PERIOD    1
     9 TOTAL ITERATIONS

 MAXIMUM HEAD CHANGE FOR EACH ITERATION (1 INDICATES THE FIRST INNER ITERATION):

    HEAD CHANGE    HEAD CHANGE    HEAD CHANGE    HEAD CHANGE    HEAD CHANGE 
   LAYER,ROW,COL  LAYER,ROW,COL  LAYER,ROW,COL  LAYER,ROW,COL  LAYER,ROW,COL
 ---------------------------------------------------------------------------
  1  0.1372E-01  0  0.7552E-02  0 -0.3725E-02  0 -0.9173E-02  0  0.7003E-02
   ( 15,  1, 86)  (  6,  1, 41)  (  7,  1, 12)  (  8,  1, 43)  (  8,  1, 45)
  0 -0.3927E-02  0 -0.1456E-02  0 -0.8481E-03  1  0.7288E-03
   ( 11,  1, 64)  ( 11,  1, 55)  ( 11,  1, 70)  ( 11,  1, 70)

 MAXIMUM RESIDUAL FOR EACH ITERATION (1 INDICATES THE FIRST INNER ITERATION):

    RESIDUAL       RESIDUAL       RESIDUAL       RESIDUAL       RESIDUAL    
   LAYER,ROW,COL  LAYER,ROW,COL  LAYER,ROW,COL  LAYER,ROW,COL  LAYER,ROW,COL
 ---------------------------------------------------------------------------
  1  0.1360E+06  0 -0.9623E+05  0 -0.9536E+05  0 -0.7638E+05  0  -6182.    
   ( 21,  1, 89)  ( 19,  1, 89)  ( 19,  1, 89)  ( 19,  1, 89)  ( 17,  1, 87)
  0   3135.      0   2588.      0   1540.      1   1360.    
   ( 17,  1, 88)  ( 22,  1, 87)  ( 22,  1, 87)  ( 22,  1, 87)


 FLOW MODEL IS TRANSIENT
 FLOW MODEL CONTAINS CONSTANT-HEAD CELLS


 MAXIMUM STEPSIZE DURING WHICH ANY PARTICLE CANNOT MOVE MORE THAN ONE CELL
 =  12.90    (WHEN MIN. R.F.=1)  AT K=  17, I=   1, J=  90

 MAXIMUM STEPSIZE WHICH MEETS STABILITY CRITERION OF THE ADVECTION TERM
 (FOR PURE FINITE-DIFFERENCE OPTION, MIXELM=0) 
 =  8.057    (WHEN MIN. R.F.=1)  AT K=  16, I=   1, J=  90


 TOTAL NUMBER OF POINT SOURCES/SINKS PRESENT IN THE FLOW MODEL =    30

 MAXIMUM STEPSIZE WHICH MEETS STABILITY CRITERION OF THE SINK & SOURCE TERM
 =  12.28    (WHEN MIN. R.F.=1)  AT K=  17, I=   1, J=  91

 MAXIMUM STEPSIZE WHICH MEETS STABILITY CRITERION OF THE DISPERSION TERM
 =  4.046    (WHEN MIN. R.F.=1)  AT K=  17, I=   1, J=  90
     1 CALLS TO GCG PACKAGE FOR TRANSPORT TIME STEP 195 IN FLOW TIME STEP   1 STRESS PERIOD   1
     8 TOTAL ITERATIONS
  MAXIMUM CONCENTRATION CHANGES FOR EACH ITERATION:
  MAX. CHANGE LAYER,ROW,COL MAX. CHANGE LAYER,ROW,COL MAX. CHANGE LAYER,ROW,COL MAX. CHANGE LAYER,ROW,COL MAX. CHANGE LAYER,ROW,COL
 ------------------------------------------------------------------------------------------------------------------------------------
   0.5194E-01 ( 20,  1, 87)  0.4295E-02 ( 19,  1, 89)  0.2072E-02 ( 17,  1, 86)  0.5069E-03 ( 20,  1, 89)  0.9487E-04 ( 16,  1, 89)
   0.2078E-04 ( 20,  1, 89)  0.2233E-04 ( 16,  1, 90)  0.6473E-06 ( 17,  1, 90)
     1 CALLS TO GCG PACKAGE FOR TRANSPORT TIME STEP 195 IN FLOW TIME STEP   1 STRESS PERIOD   1
     9 TOTAL ITERATIONS
  MAXIMUM CONCENTRATION CHANGES FOR EACH ITERATION:
  MAX. CHANGE LAYER,ROW,COL MAX. CHANGE LAYER,ROW,COL MAX. CHANGE LAYER,ROW,COL MAX. CHANGE LAYER,ROW,COL MAX. CHANGE LAYER,ROW,COL
 ------------------------------------------------------------------------------------------------------------------------------------
   0.6302E-01 ( 20,  1, 87)  0.5580E-02 ( 19,  1, 86)  0.2933E-02 ( 19,  1, 89)  0.1663E-02 ( 19,  1, 89)  0.3453E-04 ( 16,  1, 89)
   0.1178E-03 ( 16,  1, 89)  0.1619E-04 ( 16,  1, 90)  0.1026E-05 ( 17,  1, 90)  0.1203E-06 ( 17,  1, 90)
 
 SOLVING FOR HEAD 


     2 CALLS TO PCG ROUTINE FOR TIME STEP   1 IN STRESS PERIOD    1
     9 TOTAL ITERATIONS

 MAXIMUM HEAD CHANGE FOR EACH ITERATION (1 INDICATES THE FIRST INNER ITERATION):

    HEAD CHANGE    HEAD CHANGE    HEAD CHANGE    HEAD CHANGE    HEAD CHANGE 
   LAYER,ROW,COL  LAYER,ROW,COL  LAYER,ROW,COL  LAYER,ROW,COL  LAYER,ROW,COL
 ---------------------------------------------------------------------------
  1 -0.1376E-01  0  0.4205E-02  0  0.4169E-02  0  0.1118E-01  0 -0.1298E-01
   ( 15,  1, 86)  ( 17,  1, 89)  (  8,  1, 12)  ( 11,  1, 50)  ( 11,  1, 50)
  0  0.2479E-02  0  0.1136E-02  0  0.4641E-03  1 -0.3874E-03
   ( 11,  1, 51)  ( 11,  1, 63)  ( 11,  1, 39)  ( 11,  1, 36)

 MAXIMUM RESIDUAL FOR EACH ITERATION (1 INDICATES THE FIRST INNER ITERATION):

    RESIDUAL       RESIDUAL       RESIDUAL       RESIDUAL       RESIDUAL    
   LAYER,ROW,COL  LAYER,ROW,COL  LAYER,ROW,COL  LAYER,ROW,COL  LAYER,ROW,COL
 ---------------------------------------------------------------------------
  1 -0.1372E+06  0  0.9767E+05  0  0.9691E+05  0  0.1948E+05  0  -4904.    
   ( 21,  1, 89)  ( 19,  1, 89)  ( 19,  1, 89)  ( 19,  1, 89)  ( 17,  1, 88)
  0  -2790.      0  -2490.      0  -853.0      1  -761.8    
   ( 22,  1, 87)  ( 22,  1, 87)  ( 22,  1, 87)  ( 22,  1, 87)


 FLOW MODEL IS TRANSIENT
 FLOW MODEL CONTAINS CONSTANT-HEAD CELLS


 MAXIMUM STEPSIZE DURING WHICH ANY PARTICLE CANNOT MOVE MORE THAN ONE CELL
 =  13.23    (WHEN MIN. R.F.=1)  AT K=  17, I=   1, J=  90

 MAXIMUM STEPSIZE WHICH MEETS STABILITY CRITERION OF THE ADVECTION TERM
 (FOR PURE FINITE-DIFFERENCE OPTION, MIXELM=0) 
 =  8.002    (WHEN MIN. R.F.=1)  AT K=  16, I=   1, J=  90


 TOTAL NUMBER OF POINT SOURCES/SINKS PRESENT IN THE FLOW MODEL =    30

 MAXIMUM STEPSIZE WHICH MEETS STABILITY CRITERION OF THE SINK & SOURCE TERM
 =  12.18    (WHEN MIN. R.F.=1)  AT K=  17, I=   1, J=  91

 MAXIMUM STEPSIZE WHICH MEETS STABILITY CRITERION OF THE DISPERSION TERM
 =  4.379    (WHEN MIN. R.F.=1)  AT K=  17, I=   1, J=  90
     1 CALLS TO GCG PACKAGE FOR TRANSPORT TIME STEP 196 IN FLOW TIME STEP   1 STRESS PERIOD   1
     9 TOTAL ITERATIONS
     1 CALLS TO GCG PACKAGE FOR TRANSPORT TIME STEP 196 IN FLOW TIME STEP   1 STRESS PERIOD   1
     9 TOTAL ITERATIONS
 
 SOLVING FOR HEAD 


     2 CALLS TO PCG ROUTINE FOR TIME STEP   1 IN STRESS PERIOD    1
     8 TOTAL ITERATIONS

 MAXIMUM HEAD CHANGE FOR EACH ITERATION (1 INDICATES THE FIRST INNER ITERATION):

    HEAD CHANGE    HEAD CHANGE    HEAD CHANGE    HEAD CHANGE    HEAD CHANGE 
   LAYER,ROW,COL  LAYER,ROW,COL  LAYER,ROW,COL  LAYER,ROW,COL  LAYER,ROW,COL
 ---------------------------------------------------------------------------
  1  0.1336E-01  0 -0.3876E-02  0 -0.2359E-02  0 -0.8524E-02  0  0.9063E-02
   ( 15,  1, 86)  ( 17,  1, 89)  (  7,  1, 12)  (  8,  1, 44)  (  7,  1, 44)
  0  0.1101E-02  0 -0.9386E-03  1  0.6162E-03
   ( 11,  1, 49)  ( 11,  1, 54)  ( 11,  1, 53)

 MAXIMUM RESIDUAL FOR EACH ITERATION (1 INDICATES THE FIRST INNER ITERATION):

    RESIDUAL       RESIDUAL       RESIDUAL       RESIDUAL       RESIDUAL    
   LAYER,ROW,COL  LAYER,ROW,COL  LAYER,ROW,COL  LAYER,ROW,COL  LAYER,ROW,COL
 ---------------------------------------------------------------------------
  1  0.1362E+06  0 -0.9659E+05  0 -0.9458E+05  0 -0.3294E+05  0  -5989.    
   ( 21,  1, 89)  ( 19,  1, 89)  ( 19,  1, 89)  ( 19,  1, 89)  ( 17,  1, 87)
  0   2842.      0   2493.      1   2089.    
   ( 22,  1, 87)  ( 22,  1, 87)  ( 22,  1, 87)


 FLOW MODEL IS TRANSIENT
 FLOW MODEL CONTAINS CONSTANT-HEAD CELLS


 MAXIMUM STEPSIZE DURING WHICH ANY PARTICLE CANNOT MOVE MORE THAN ONE CELL
 =  12.83    (WHEN MIN. R.F.=1)  AT K=  17, I=   1, J=  90

 MAXIMUM STEPSIZE WHICH MEETS STABILITY CRITERION OF THE ADVECTION TERM
 (FOR PURE FINITE-DIFFERENCE OPTION, MIXELM=0) 
 =  8.027    (WHEN MIN. R.F.=1)  AT K=  16, I=   1, J=  90


 TOTAL NUMBER OF POINT SOURCES/SINKS PRESENT IN THE FLOW MODEL =    30

 MAXIMUM STEPSIZE WHICH MEETS STABILITY CRITERION OF THE SINK & SOURCE TERM
 =  12.20    (WHEN MIN. R.F.=1)  AT K=  17, I=   1, J=  91

 MAXIMUM STEPSIZE WHICH MEETS STABILITY CRITERION OF THE DISPERSION TERM
 =  4.020    (WHEN MIN. R.F.=1)  AT K=  17, I=   1, J=  90
     1 CALLS TO GCG PACKAGE FOR TRANSPORT TIME STEP 197 IN FLOW TIME STEP   1 STRESS PERIOD   1
     8 TOTAL ITERATIONS
     1 CALLS TO GCG PACKAGE FOR TRANSPORT TIME STEP 197 IN FLOW TIME STEP   1 STRESS PERIOD   1
     9 TOTAL ITERATIONS
 
 SOLVING FOR HEAD 


     2 CALLS TO PCG ROUTINE FOR TIME STEP   1 IN STRESS PERIOD    1
     9 TOTAL ITERATIONS

 MAXIMUM HEAD CHANGE FOR EACH ITERATION (1 INDICATES THE FIRST INNER ITERATION):

    HEAD CHANGE    HEAD CHANGE    HEAD CHANGE    HEAD CHANGE    HEAD CHANGE 
   LAYER,ROW,COL  LAYER,ROW,COL  LAYER,ROW,COL  LAYER,ROW,COL  LAYER,ROW,COL
 ---------------------------------------------------------------------------
  1 -0.1382E-01  0  0.7521E-02  0  0.5661E-02  0 -0.1370E-01  0  0.9984E-02
   ( 15,  1, 86)  ( 11,  1, 52)  (  8,  1, 12)  ( 11,  1, 52)  ( 11,  1, 51)
  0 -0.2707E-02  0 -0.1110E-02  0  0.6675E-03  1 -0.5177E-03
   ( 11,  1, 35)  (  6,  1, 41)  ( 11,  1, 62)  ( 11,  1, 62)

 MAXIMUM RESIDUAL FOR EACH ITERATION (1 INDICATES THE FIRST INNER ITERATION):

    RESIDUAL       RESIDUAL       RESIDUAL       RESIDUAL       RESIDUAL    
   LAYER,ROW,COL  LAYER,ROW,COL  LAYER,ROW,COL  LAYER,ROW,COL  LAYER,ROW,COL
 ---------------------------------------------------------------------------
  1 -0.1366E+06  0  0.9609E+05  0  0.9565E+05  0  0.7124E+05  0   5887.    
   ( 21,  1, 89)  ( 19,  1, 89)  ( 19,  1, 89)  ( 19,  1, 89)  ( 17,  1, 87)
  0  -2941.      0  -2583.      0  -1123.      1  -993.2    
   ( 17,  1, 88)  ( 22,  1, 87)  ( 22,  1, 87)  ( 22,  1, 87)


 FLOW MODEL IS TRANSIENT
 FLOW MODEL CONTAINS CONSTANT-HEAD CELLS


 MAXIMUM STEPSIZE DURING WHICH ANY PARTICLE CANNOT MOVE MORE THAN ONE CELL
 =  13.16    (WHEN MIN. R.F.=1)  AT K=  17, I=   1, J=  90

 MAXIMUM STEPSIZE WHICH MEETS STABILITY CRITERION OF THE ADVECTION TERM
 (FOR PURE FINITE-DIFFERENCE OPTION, MIXELM=0) 
 =  7.976    (WHEN MIN. R.F.=1)  AT K=  16, I=   1, J=  90


 TOTAL NUMBER OF POINT SOURCES/SINKS PRESENT IN THE FLOW MODEL =    30

 MAXIMUM STEPSIZE WHICH MEETS STABILITY CRITERION OF THE SINK & SOURCE TERM
 =  12.09    (WHEN MIN. R.F.=1)  AT K=  17, I=   1, J=  91

 MAXIMUM STEPSIZE WHICH MEETS STABILITY CRITERION OF THE DISPERSION TERM
 =  4.347    (WHEN MIN. R.F.=1)  AT K=  17, I=   1, J=  90
     1 CALLS TO GCG PACKAGE FOR TRANSPORT TIME STEP 198 IN FLOW TIME STEP   1 STRESS PERIOD   1
    10 TOTAL ITERATIONS
     1 CALLS TO GCG PACKAGE FOR TRANSPORT TIME STEP 198 IN FLOW TIME STEP   1 STRESS PERIOD   1
     8 TOTAL ITERATIONS
 
 SOLVING FOR HEAD 


     2 CALLS TO PCG ROUTINE FOR TIME STEP   1 IN STRESS PERIOD    1
     8 TOTAL ITERATIONS

 MAXIMUM HEAD CHANGE FOR EACH ITERATION (1 INDICATES THE FIRST INNER ITERATION):

    HEAD CHANGE    HEAD CHANGE    HEAD CHANGE    HEAD CHANGE    HEAD CHANGE 
   LAYER,ROW,COL  LAYER,ROW,COL  LAYER,ROW,COL  LAYER,ROW,COL  LAYER,ROW,COL
 ---------------------------------------------------------------------------
  1  0.1368E-01  0 -0.4163E-02  0 -0.3291E-02  0  0.6905E-02  0 -0.7282E-02
   ( 15,  1, 86)  ( 17,  1, 89)  (  8,  1, 12)  ( 11,  1, 61)  ( 11,  1, 61)
  0  0.1720E-02  0  0.8198E-03  1 -0.6294E-03
   ( 11,  1, 58)  ( 11,  1, 35)  ( 11,  1, 35)

 MAXIMUM RESIDUAL FOR EACH ITERATION (1 INDICATES THE FIRST INNER ITERATION):

    RESIDUAL       RESIDUAL       RESIDUAL       RESIDUAL       RESIDUAL    
   LAYER,ROW,COL  LAYER,ROW,COL  LAYER,ROW,COL  LAYER,ROW,COL  LAYER,ROW,COL
 ---------------------------------------------------------------------------
  1  0.1347E+06  0 -0.9570E+05  0 -0.9478E+05  0 -0.1897E+05  0   4938.    
   ( 21,  1, 89)  ( 19,  1, 89)  ( 19,  1, 89)  ( 19,  1, 89)  ( 17,  1, 88)
  0   2759.      0   2459.      1   1999.    
   ( 22,  1, 87)  ( 22,  1, 87)  ( 22,  1, 87)


 FLOW MODEL IS TRANSIENT
 FLOW MODEL CONTAINS CONSTANT-HEAD CELLS


 MAXIMUM STEPSIZE DURING WHICH ANY PARTICLE CANNOT MOVE MORE THAN ONE CELL
 =  12.83    (WHEN MIN. R.F.=1)  AT K=  17, I=   1, J=  90

 MAXIMUM STEPSIZE WHICH MEETS STABILITY CRITERION OF THE ADVECTION TERM
 (FOR PURE FINITE-DIFFERENCE OPTION, MIXELM=0) 
 =  8.026    (WHEN MIN. R.F.=1)  AT K=  16, I=   1, J=  90


 TOTAL NUMBER OF POINT SOURCES/SINKS PRESENT IN THE FLOW MODEL =    30

 MAXIMUM STEPSIZE WHICH MEETS STABILITY CRITERION OF THE SINK & SOURCE TERM
 =  12.17    (WHEN MIN. R.F.=1)  AT K=  17, I=   1, J=  91

 MAXIMUM STEPSIZE WHICH MEETS STABILITY CRITERION OF THE DISPERSION TERM
 =  4.019    (WHEN MIN. R.F.=1)  AT K=  17, I=   1, J=  90
     1 CALLS TO GCG PACKAGE FOR TRANSPORT TIME STEP 199 IN FLOW TIME STEP   1 STRESS PERIOD   1
     8 TOTAL ITERATIONS
     1 CALLS TO GCG PACKAGE FOR TRANSPORT TIME STEP 199 IN FLOW TIME STEP   1 STRESS PERIOD   1
     9 TOTAL ITERATIONS
 
 SOLVING FOR HEAD 


     2 CALLS TO PCG ROUTINE FOR TIME STEP   1 IN STRESS PERIOD    1
     9 TOTAL ITERATIONS

 MAXIMUM HEAD CHANGE FOR EACH ITERATION (1 INDICATES THE FIRST INNER ITERATION):

    HEAD CHANGE    HEAD CHANGE    HEAD CHANGE    HEAD CHANGE    HEAD CHANGE 
   LAYER,ROW,COL  LAYER,ROW,COL  LAYER,ROW,COL  LAYER,ROW,COL  LAYER,ROW,COL
 ---------------------------------------------------------------------------
  1 -0.1369E-01  0 -0.6829E-02  0  0.4944E-02  0  0.9964E-02  0  0.6804E-02
   ( 15,  1, 86)  ( 11,  1, 35)  (  8,  1, 12)  ( 11,  1, 35)  (  7,  1, 47)
  0  0.3250E-02  0  0.1288E-02  0  0.8557E-03  1 -0.6961E-03
   ( 11,  1, 44)  ( 11,  1, 62)  ( 11,  1, 50)  ( 11,  1, 50)

 MAXIMUM RESIDUAL FOR EACH ITERATION (1 INDICATES THE FIRST INNER ITERATION):

    RESIDUAL       RESIDUAL       RESIDUAL       RESIDUAL       RESIDUAL    
   LAYER,ROW,COL  LAYER,ROW,COL  LAYER,ROW,COL  LAYER,ROW,COL  LAYER,ROW,COL
 ---------------------------------------------------------------------------
  1 -0.1339E+06  0  0.9411E+05  0  0.9353E+05  0  0.7312E+05  0   6546.    
   ( 21,  1, 89)  ( 19,  1, 89)  ( 19,  1, 89)  ( 19,  1, 89)  ( 17,  1, 87)
  0  -3042.      0  -2559.      0  -1244.      1  -1107.    
   ( 17,  1, 88)  ( 22,  1, 87)  ( 22,  1, 87)  ( 22,  1, 87)


 FLOW MODEL IS TRANSIENT
 FLOW MODEL CONTAINS CONSTANT-HEAD CELLS


 MAXIMUM STEPSIZE DURING WHICH ANY PARTICLE CANNOT MOVE MORE THAN ONE CELL
 =  13.18    (WHEN MIN. R.F.=1)  AT K=  17, I=   1, J=  90

 MAXIMUM STEPSIZE WHICH MEETS STABILITY CRITERION OF THE ADVECTION TERM
 (FOR PURE FINITE-DIFFERENCE OPTION, MIXELM=0) 
 =  7.983    (WHEN MIN. R.F.=1)  AT K=  16, I=   1, J=  90


 TOTAL NUMBER OF POINT SOURCES/SINKS PRESENT IN THE FLOW MODEL =    30

 MAXIMUM STEPSIZE WHICH MEETS STABILITY CRITERION OF THE SINK & SOURCE TERM
 =  12.11    (WHEN MIN. R.F.=1)  AT K=  17, I=   1, J=  91

 MAXIMUM STEPSIZE WHICH MEETS STABILITY CRITERION OF THE DISPERSION TERM
 =  4.360    (WHEN MIN. R.F.=1)  AT K=  17, I=   1, J=  90
     1 CALLS TO GCG PACKAGE FOR TRANSPORT TIME STEP 200 IN FLOW TIME STEP   1 STRESS PERIOD   1
    10 TOTAL ITERATIONS
  MAXIMUM CONCENTRATION CHANGES FOR EACH ITERATION:
  MAX. CHANGE LAYER,ROW,COL MAX. CHANGE LAYER,ROW,COL MAX. CHANGE LAYER,ROW,COL MAX. CHANGE LAYER,ROW,COL MAX. CHANGE LAYER,ROW,COL
 ------------------------------------------------------------------------------------------------------------------------------------
   0.4877E-01 ( 20,  1, 87)  0.3293E-02 ( 19,  1, 87)  0.2188E-02 ( 18,  1, 87)  0.2145E-03 ( 16,  1, 88)  0.1435E-03 ( 16,  1, 89)
   0.2851E-04 ( 16,  1, 90)  0.2377E-05 ( 21,  1, 78)  0.1175E-05 ( 15,  1, 89)  0.1696E-05 ( 16,  1, 89)  0.1169E-06 ( 17,  1, 89)
     1 CALLS TO GCG PACKAGE FOR TRANSPORT TIME STEP 200 IN FLOW TIME STEP   1 STRESS PERIOD   1
     8 TOTAL ITERATIONS
  MAXIMUM CONCENTRATION CHANGES FOR EACH ITERATION:
  MAX. CHANGE LAYER,ROW,COL MAX. CHANGE LAYER,ROW,COL MAX. CHANGE LAYER,ROW,COL MAX. CHANGE LAYER,ROW,COL MAX. CHANGE LAYER,ROW,COL
 ------------------------------------------------------------------------------------------------------------------------------------
   0.5854E-01 ( 19,  1, 88)  0.6663E-02 ( 19,  1, 87)  0.2637E-02 ( 18,  1, 87)  0.9350E-03 ( 18,  1, 87)  0.1339E-03 ( 17,  1, 89)
   0.4054E-04 ( 17,  1, 90)  0.7326E-05 ( 17,  1, 90)  0.9383E-06 ( 17,  1, 90)



 >>>>>>>>>>>>>>>>>>>>>>>>>>>>>>>>>>>>>>>>>>>>>>>>>>>>>>>FOR COMPONENT NO. 01<<<<<<<<<<<<<<<<<<<<<<<<<<<<<<<<<<<<<<<<<<<<<<<<<<<<<<<


                                            -------------------------------------------
                                                      TRANSPORT STEP NO.  200
                                            -------------------------------------------

 TOTAL ELAPSED TIME SINCE BEGINNING OF SIMULATION =   10000.00    D   
 .....................................................................

                     CUMMULATIVE MASS BUDGETS AT END OF TRANSPORT STEP  200, TIME STEP    1, STRESS PERIOD    1
                     ------------------------------------------------------------------------------------------

                                                             IN                           OUT
                                                      ----------------             ----------------
                               CONSTANT CONCENTRATION:    0.000000                    0.000000    
                                        CONSTANT HEAD:   0.3960116E+09              -0.3958394E+09
                                                WELLS:    0.000000                    0.000000    
                                             RECHARGE:    0.000000                    0.000000    
                               1ST/0TH ORDER REACTION:    0.000000                    0.000000    
                                MASS STORAGE (SOLUTE):   0.5546931E+08              -0.5564159E+08
                            ---------------------------------------------------------------------------
                                              [TOTAL]:   0.4514813E+09 KG           -0.4514814E+09 KG  

                                                          NET (IN - OUT):   -62.87288    
                                                   DISCREPANCY (PERCENT):  -0.1392591E-04



 >>>>>>>>>>>>>>>>>>>>>>>>>>>>>>>>>>>>>>>>>>>>>>>>>>>>>>>FOR COMPONENT NO. 02<<<<<<<<<<<<<<<<<<<<<<<<<<<<<<<<<<<<<<<<<<<<<<<<<<<<<<<


                                            -------------------------------------------
                                                      TRANSPORT STEP NO.  200
                                            -------------------------------------------

 TOTAL ELAPSED TIME SINCE BEGINNING OF SIMULATION =   10000.00    D   
 .....................................................................

                     CUMMULATIVE MASS BUDGETS AT END OF TRANSPORT STEP  200, TIME STEP    1, STRESS PERIOD    1
                     ------------------------------------------------------------------------------------------

                                                             IN                           OUT
                                                      ----------------             ----------------
                               CONSTANT CONCENTRATION:    0.000000                    0.000000    
                                        CONSTANT HEAD:    0.000000                  -0.3107376E+11
                                                WELLS:    0.000000                    0.000000    
                                             RECHARGE:    0.000000                    0.000000    
                               1ST/0TH ORDER REACTION:   0.1655000E+12                0.000000    
                                MASS STORAGE (SOLUTE):   0.6625681E+10              -0.1410519E+12
                            ---------------------------------------------------------------------------
                                              [TOTAL]:   0.1721258E+12 KG           -0.1721258E+12 KG  

                                                          NET (IN - OUT):   -2555.560    
                                                   DISCREPANCY (PERCENT):  -0.1484705E-05
 
 SOLVING FOR HEAD 


     2 CALLS TO PCG ROUTINE FOR TIME STEP   1 IN STRESS PERIOD    1
     8 TOTAL ITERATIONS

 MAXIMUM HEAD CHANGE FOR EACH ITERATION (1 INDICATES THE FIRST INNER ITERATION):

    HEAD CHANGE    HEAD CHANGE    HEAD CHANGE    HEAD CHANGE    HEAD CHANGE 
   LAYER,ROW,COL  LAYER,ROW,COL  LAYER,ROW,COL  LAYER,ROW,COL  LAYER,ROW,COL
 ---------------------------------------------------------------------------
  1  0.1366E-01  0 -0.4173E-02  0 -0.3644E-02  0  0.9181E-02  0 -0.1013E-01
   ( 15,  1, 86)  ( 17,  1, 89)  (  8,  1, 12)  ( 11,  1, 49)  ( 11,  1, 49)
  0  0.2012E-02  0 -0.6292E-03  1 -0.4843E-03
   ( 11,  1, 49)  ( 11,  1, 57)  ( 11,  1, 66)

 MAXIMUM RESIDUAL FOR EACH ITERATION (1 INDICATES THE FIRST INNER ITERATION):

    RESIDUAL       RESIDUAL       RESIDUAL       RESIDUAL       RESIDUAL    
   LAYER,ROW,COL  LAYER,ROW,COL  LAYER,ROW,COL  LAYER,ROW,COL  LAYER,ROW,COL
 ---------------------------------------------------------------------------
  1  0.1347E+06  0 -0.9534E+05  0 -0.9450E+05  0 -0.1895E+05  0   5018.    
   ( 21,  1, 89)  ( 19,  1, 89)  ( 19,  1, 89)  ( 19,  1, 89)  ( 17,  1, 88)
  0   2760.      0   2441.      1   2040.    
   ( 22,  1, 87)  ( 22,  1, 87)  ( 22,  1, 87)


 FLOW MODEL IS TRANSIENT
 FLOW MODEL CONTAINS CONSTANT-HEAD CELLS


 MAXIMUM STEPSIZE DURING WHICH ANY PARTICLE CANNOT MOVE MORE THAN ONE CELL
 =  12.84    (WHEN MIN. R.F.=1)  AT K=  17, I=   1, J=  90

 MAXIMUM STEPSIZE WHICH MEETS STABILITY CRITERION OF THE ADVECTION TERM
 (FOR PURE FINITE-DIFFERENCE OPTION, MIXELM=0) 
 =  8.028    (WHEN MIN. R.F.=1)  AT K=  16, I=   1, J=  90


 TOTAL NUMBER OF POINT SOURCES/SINKS PRESENT IN THE FLOW MODEL =    30

 MAXIMUM STEPSIZE WHICH MEETS STABILITY CRITERION OF THE SINK & SOURCE TERM
 =  12.19    (WHEN MIN. R.F.=1)  AT K=  17, I=   1, J=  91

 MAXIMUM STEPSIZE WHICH MEETS STABILITY CRITERION OF THE DISPERSION TERM
 =  4.022    (WHEN MIN. R.F.=1)  AT K=  17, I=   1, J=  90
     1 CALLS TO GCG PACKAGE FOR TRANSPORT TIME STEP 201 IN FLOW TIME STEP   1 STRESS PERIOD   1
     8 TOTAL ITERATIONS
     1 CALLS TO GCG PACKAGE FOR TRANSPORT TIME STEP 201 IN FLOW TIME STEP   1 STRESS PERIOD   1
     9 TOTAL ITERATIONS
 
 SOLVING FOR HEAD 


     2 CALLS TO PCG ROUTINE FOR TIME STEP   1 IN STRESS PERIOD    1
     9 TOTAL ITERATIONS

 MAXIMUM HEAD CHANGE FOR EACH ITERATION (1 INDICATES THE FIRST INNER ITERATION):

    HEAD CHANGE    HEAD CHANGE    HEAD CHANGE    HEAD CHANGE    HEAD CHANGE 
   LAYER,ROW,COL  LAYER,ROW,COL  LAYER,ROW,COL  LAYER,ROW,COL  LAYER,ROW,COL
 ---------------------------------------------------------------------------
  1 -0.1371E-01  0 -0.6934E-02  0  0.4436E-02  0  0.8638E-02  0 -0.6408E-02
   ( 15,  1, 86)  (  6,  1, 42)  (  7,  1, 12)  (  9,  1, 45)  (  6,  1, 47)
  0  0.3906E-02  0  0.1486E-02  0  0.7527E-03  1 -0.6136E-03
   ( 11,  1, 58)  ( 11,  1, 49)  ( 11,  1, 63)  ( 11,  1, 63)

 MAXIMUM RESIDUAL FOR EACH ITERATION (1 INDICATES THE FIRST INNER ITERATION):

    RESIDUAL       RESIDUAL       RESIDUAL       RESIDUAL       RESIDUAL    
   LAYER,ROW,COL  LAYER,ROW,COL  LAYER,ROW,COL  LAYER,ROW,COL  LAYER,ROW,COL
 ---------------------------------------------------------------------------
  1 -0.1347E+06  0  0.9526E+05  0  0.9459E+05  0  0.7479E+05  0   6326.    
   ( 21,  1, 89)  ( 19,  1, 89)  ( 19,  1, 89)  ( 19,  1, 89)  ( 17,  1, 87)
  0  -2974.      0  -2557.      0  -932.5      1  -818.1    
   ( 17,  1, 88)  ( 22,  1, 87)  ( 22,  1, 87)  ( 22,  1, 87)


 FLOW MODEL IS TRANSIENT
 FLOW MODEL CONTAINS CONSTANT-HEAD CELLS


 MAXIMUM STEPSIZE DURING WHICH ANY PARTICLE CANNOT MOVE MORE THAN ONE CELL
 =  13.18    (WHEN MIN. R.F.=1)  AT K=  17, I=   1, J=  90

 MAXIMUM STEPSIZE WHICH MEETS STABILITY CRITERION OF THE ADVECTION TERM
 (FOR PURE FINITE-DIFFERENCE OPTION, MIXELM=0) 
 =  7.981    (WHEN MIN. R.F.=1)  AT K=  16, I=   1, J=  90


 TOTAL NUMBER OF POINT SOURCES/SINKS PRESENT IN THE FLOW MODEL =    30

 MAXIMUM STEPSIZE WHICH MEETS STABILITY CRITERION OF THE SINK & SOURCE TERM
 =  12.12    (WHEN MIN. R.F.=1)  AT K=  17, I=   1, J=  91

 MAXIMUM STEPSIZE WHICH MEETS STABILITY CRITERION OF THE DISPERSION TERM
 =  4.361    (WHEN MIN. R.F.=1)  AT K=  17, I=   1, J=  90
     1 CALLS TO GCG PACKAGE FOR TRANSPORT TIME STEP 202 IN FLOW TIME STEP   1 STRESS PERIOD   1
    10 TOTAL ITERATIONS
     1 CALLS TO GCG PACKAGE FOR TRANSPORT TIME STEP 202 IN FLOW TIME STEP   1 STRESS PERIOD   1
     8 TOTAL ITERATIONS
 
 SOLVING FOR HEAD 


     2 CALLS TO PCG ROUTINE FOR TIME STEP   1 IN STRESS PERIOD    1
     9 TOTAL ITERATIONS

 MAXIMUM HEAD CHANGE FOR EACH ITERATION (1 INDICATES THE FIRST INNER ITERATION):

    HEAD CHANGE    HEAD CHANGE    HEAD CHANGE    HEAD CHANGE    HEAD CHANGE 
   LAYER,ROW,COL  LAYER,ROW,COL  LAYER,ROW,COL  LAYER,ROW,COL  LAYER,ROW,COL
 ---------------------------------------------------------------------------
  1  0.1357E-01  0 -0.4114E-02  0 -0.2960E-02  0  0.8412E-02  0 -0.9143E-02
   ( 15,  1, 86)  ( 17,  1, 89)  (  8,  1, 12)  ( 11,  1, 62)  ( 11,  1, 62)
  0 -0.2349E-02  0 -0.1047E-02  0 -0.6753E-03  1  0.4946E-03
   ( 11,  1, 69)  ( 11,  1, 58)  ( 11,  1, 65)  ( 11,  1, 70)

 MAXIMUM RESIDUAL FOR EACH ITERATION (1 INDICATES THE FIRST INNER ITERATION):

    RESIDUAL       RESIDUAL       RESIDUAL       RESIDUAL       RESIDUAL    
   LAYER,ROW,COL  LAYER,ROW,COL  LAYER,ROW,COL  LAYER,ROW,COL  LAYER,ROW,COL
 ---------------------------------------------------------------------------
  1  0.1349E+06  0 -0.9540E+05  0 -0.9438E+05  0 -0.1787E+05  0   4610.    
   ( 21,  1, 89)  ( 19,  1, 89)  ( 19,  1, 89)  ( 19,  1, 89)  ( 17,  1, 88)
  0   2753.      0   2214.      0   659.8      1   560.2    
   ( 22,  1, 87)  ( 22,  1, 87)  ( 22,  1, 87)  ( 22,  1, 87)


 FLOW MODEL IS TRANSIENT
 FLOW MODEL CONTAINS CONSTANT-HEAD CELLS


 MAXIMUM STEPSIZE DURING WHICH ANY PARTICLE CANNOT MOVE MORE THAN ONE CELL
 =  12.83    (WHEN MIN. R.F.=1)  AT K=  17, I=   1, J=  90

 MAXIMUM STEPSIZE WHICH MEETS STABILITY CRITERION OF THE ADVECTION TERM
 (FOR PURE FINITE-DIFFERENCE OPTION, MIXELM=0) 
 =  8.027    (WHEN MIN. R.F.=1)  AT K=  16, I=   1, J=  90


 TOTAL NUMBER OF POINT SOURCES/SINKS PRESENT IN THE FLOW MODEL =    30

 MAXIMUM STEPSIZE WHICH MEETS STABILITY CRITERION OF THE SINK & SOURCE TERM
 =  12.18    (WHEN MIN. R.F.=1)  AT K=  17, I=   1, J=  91

 MAXIMUM STEPSIZE WHICH MEETS STABILITY CRITERION OF THE DISPERSION TERM
 =  4.021    (WHEN MIN. R.F.=1)  AT K=  17, I=   1, J=  90
     1 CALLS TO GCG PACKAGE FOR TRANSPORT TIME STEP 203 IN FLOW TIME STEP   1 STRESS PERIOD   1
     8 TOTAL ITERATIONS
     1 CALLS TO GCG PACKAGE FOR TRANSPORT TIME STEP 203 IN FLOW TIME STEP   1 STRESS PERIOD   1
     9 TOTAL ITERATIONS
 
 SOLVING FOR HEAD 


     2 CALLS TO PCG ROUTINE FOR TIME STEP   1 IN STRESS PERIOD    1
     9 TOTAL ITERATIONS

 MAXIMUM HEAD CHANGE FOR EACH ITERATION (1 INDICATES THE FIRST INNER ITERATION):

    HEAD CHANGE    HEAD CHANGE    HEAD CHANGE    HEAD CHANGE    HEAD CHANGE 
   LAYER,ROW,COL  LAYER,ROW,COL  LAYER,ROW,COL  LAYER,ROW,COL  LAYER,ROW,COL
 ---------------------------------------------------------------------------
  1 -0.1331E-01  0  0.3703E-02  0  0.2420E-02  0 -0.8692E-02  0  0.8429E-02
   ( 15,  1, 86)  ( 17,  1, 89)  (  8,  1, 12)  (  6,  1, 48)  (  9,  1, 50)
  0 -0.1237E-02  0  0.1316E-02  0  0.8400E-03  1 -0.5497E-03
   ( 11,  1, 68)  ( 11,  1, 69)  ( 11,  1, 63)  ( 11,  1, 63)

 MAXIMUM RESIDUAL FOR EACH ITERATION (1 INDICATES THE FIRST INNER ITERATION):

    RESIDUAL       RESIDUAL       RESIDUAL       RESIDUAL       RESIDUAL    
   LAYER,ROW,COL  LAYER,ROW,COL  LAYER,ROW,COL  LAYER,ROW,COL  LAYER,ROW,COL
 ---------------------------------------------------------------------------
  1 -0.1320E+06  0  0.9301E+05  0  0.9141E+05  0  0.3830E+05  0   6298.    
   ( 21,  1, 89)  ( 19,  1, 89)  ( 19,  1, 89)  ( 19,  1, 89)  ( 17,  1, 87)
  0  -2823.      0  -2000.      0  -705.4      1  -588.5    
   ( 22,  1, 87)  ( 22,  1, 87)  ( 22,  1, 87)  ( 22,  1, 87)


 FLOW MODEL IS TRANSIENT
 FLOW MODEL CONTAINS CONSTANT-HEAD CELLS


 MAXIMUM STEPSIZE DURING WHICH ANY PARTICLE CANNOT MOVE MORE THAN ONE CELL
 =  13.22    (WHEN MIN. R.F.=1)  AT K=  17, I=   1, J=  90

 MAXIMUM STEPSIZE WHICH MEETS STABILITY CRITERION OF THE ADVECTION TERM
 (FOR PURE FINITE-DIFFERENCE OPTION, MIXELM=0) 
 =  8.002    (WHEN MIN. R.F.=1)  AT K=  16, I=   1, J=  90


 TOTAL NUMBER OF POINT SOURCES/SINKS PRESENT IN THE FLOW MODEL =    30

 MAXIMUM STEPSIZE WHICH MEETS STABILITY CRITERION OF THE SINK & SOURCE TERM
 =  12.17    (WHEN MIN. R.F.=1)  AT K=  17, I=   1, J=  91

 MAXIMUM STEPSIZE WHICH MEETS STABILITY CRITERION OF THE DISPERSION TERM
 =  4.373    (WHEN MIN. R.F.=1)  AT K=  17, I=   1, J=  90
     1 CALLS TO GCG PACKAGE FOR TRANSPORT TIME STEP 204 IN FLOW TIME STEP   1 STRESS PERIOD   1
     9 TOTAL ITERATIONS
     1 CALLS TO GCG PACKAGE FOR TRANSPORT TIME STEP 204 IN FLOW TIME STEP   1 STRESS PERIOD   1
     8 TOTAL ITERATIONS
 
 SOLVING FOR HEAD 


     2 CALLS TO PCG ROUTINE FOR TIME STEP   1 IN STRESS PERIOD    1
     8 TOTAL ITERATIONS

 MAXIMUM HEAD CHANGE FOR EACH ITERATION (1 INDICATES THE FIRST INNER ITERATION):

    HEAD CHANGE    HEAD CHANGE    HEAD CHANGE    HEAD CHANGE    HEAD CHANGE 
   LAYER,ROW,COL  LAYER,ROW,COL  LAYER,ROW,COL  LAYER,ROW,COL  LAYER,ROW,COL
 ---------------------------------------------------------------------------
  1  0.1344E-01  0 -0.3673E-02  0 -0.2363E-02  0 -0.9571E-02  0  0.1124E-01
   ( 15,  1, 86)  ( 17,  1, 89)  (  8,  1, 12)  ( 11,  1, 56)  ( 11,  1, 56)
  0 -0.2188E-02  0 -0.7650E-03  1 -0.6247E-03
   ( 11,  1, 56)  ( 11,  1, 70)  ( 11,  1, 62)

 MAXIMUM RESIDUAL FOR EACH ITERATION (1 INDICATES THE FIRST INNER ITERATION):

    RESIDUAL       RESIDUAL       RESIDUAL       RESIDUAL       RESIDUAL    
   LAYER,ROW,COL  LAYER,ROW,COL  LAYER,ROW,COL  LAYER,ROW,COL  LAYER,ROW,COL
 ---------------------------------------------------------------------------
  1  0.1320E+06  0 -0.9182E+05  0 -0.9042E+05  0 -0.1849E+05  0  -4685.    
   ( 21,  1, 89)  ( 19,  1, 89)  ( 19,  1, 89)  ( 19,  1, 89)  ( 17,  1, 87)
  0   2892.      0   2484.      1   2111.    
   ( 22,  1, 87)  ( 22,  1, 87)  ( 22,  1, 87)


 FLOW MODEL IS TRANSIENT
 FLOW MODEL CONTAINS CONSTANT-HEAD CELLS


 MAXIMUM STEPSIZE DURING WHICH ANY PARTICLE CANNOT MOVE MORE THAN ONE CELL
 =  12.84    (WHEN MIN. R.F.=1)  AT K=  17, I=   1, J=  90

 MAXIMUM STEPSIZE WHICH MEETS STABILITY CRITERION OF THE ADVECTION TERM
 (FOR PURE FINITE-DIFFERENCE OPTION, MIXELM=0) 
 =  8.024    (WHEN MIN. R.F.=1)  AT K=  16, I=   1, J=  90


 TOTAL NUMBER OF POINT SOURCES/SINKS PRESENT IN THE FLOW MODEL =    30

 MAXIMUM STEPSIZE WHICH MEETS STABILITY CRITERION OF THE SINK & SOURCE TERM
 =  12.19    (WHEN MIN. R.F.=1)  AT K=  17, I=   1, J=  91

 MAXIMUM STEPSIZE WHICH MEETS STABILITY CRITERION OF THE DISPERSION TERM
 =  4.028    (WHEN MIN. R.F.=1)  AT K=  17, I=   1, J=  90
     1 CALLS TO GCG PACKAGE FOR TRANSPORT TIME STEP 205 IN FLOW TIME STEP   1 STRESS PERIOD   1
     8 TOTAL ITERATIONS
  MAXIMUM CONCENTRATION CHANGES FOR EACH ITERATION:
  MAX. CHANGE LAYER,ROW,COL MAX. CHANGE LAYER,ROW,COL MAX. CHANGE LAYER,ROW,COL MAX. CHANGE LAYER,ROW,COL MAX. CHANGE LAYER,ROW,COL
 ------------------------------------------------------------------------------------------------------------------------------------
   0.5212E-01 ( 20,  1, 87)  0.4182E-02 ( 19,  1, 89)  0.2145E-02 ( 17,  1, 86)  0.4920E-03 ( 20,  1, 89)  0.9760E-04 ( 16,  1, 89)
   0.1995E-04 ( 20,  1, 89)  0.1860E-04 ( 16,  1, 90)  0.6652E-06 ( 17,  1, 90)
     1 CALLS TO GCG PACKAGE FOR TRANSPORT TIME STEP 205 IN FLOW TIME STEP   1 STRESS PERIOD   1
     9 TOTAL ITERATIONS
  MAXIMUM CONCENTRATION CHANGES FOR EACH ITERATION:
  MAX. CHANGE LAYER,ROW,COL MAX. CHANGE LAYER,ROW,COL MAX. CHANGE LAYER,ROW,COL MAX. CHANGE LAYER,ROW,COL MAX. CHANGE LAYER,ROW,COL
 ------------------------------------------------------------------------------------------------------------------------------------
   0.6310E-01 ( 20,  1, 87)  0.5525E-02 ( 19,  1, 86)  0.2472E-02 ( 19,  1, 89)  0.1289E-02 ( 19,  1, 89)  0.2738E-03 ( 16,  1, 89)
   0.1854E-03 ( 16,  1, 89)  0.1279E-04 ( 16,  1, 90)  0.1068E-05 ( 17,  1, 90)  0.1778E-06 ( 18,  1, 90)
 
 SOLVING FOR HEAD 


     2 CALLS TO PCG ROUTINE FOR TIME STEP   1 IN STRESS PERIOD    1
     9 TOTAL ITERATIONS

 MAXIMUM HEAD CHANGE FOR EACH ITERATION (1 INDICATES THE FIRST INNER ITERATION):

    HEAD CHANGE    HEAD CHANGE    HEAD CHANGE    HEAD CHANGE    HEAD CHANGE 
   LAYER,ROW,COL  LAYER,ROW,COL  LAYER,ROW,COL  LAYER,ROW,COL  LAYER,ROW,COL
 ---------------------------------------------------------------------------
  1 -0.1371E-01  0 -0.6133E-02  0  0.3426E-02  0  0.9795E-02  0 -0.7701E-02
   ( 15,  1, 86)  (  8,  1, 45)  (  7,  1, 12)  (  8,  1, 46)  (  7,  1, 46)
  0  0.3929E-02  0  0.1411E-02  0  0.8368E-03  1 -0.6758E-03
   ( 11,  1, 69)  ( 11,  1, 50)  ( 11,  1, 64)  ( 11,  1, 64)

 MAXIMUM RESIDUAL FOR EACH ITERATION (1 INDICATES THE FIRST INNER ITERATION):

    RESIDUAL       RESIDUAL       RESIDUAL       RESIDUAL       RESIDUAL    
   LAYER,ROW,COL  LAYER,ROW,COL  LAYER,ROW,COL  LAYER,ROW,COL  LAYER,ROW,COL
 ---------------------------------------------------------------------------
  1 -0.1366E+06  0  0.9737E+05  0  0.9642E+05  0  0.7136E+05  0   6190.    
   ( 21,  1, 89)  ( 19,  1, 89)  ( 19,  1, 89)  ( 19,  1, 89)  ( 17,  1, 87)
  0  -2817.      0  -2564.      0  -1432.      1  -1273.    
   ( 17,  1, 88)  ( 22,  1, 87)  ( 22,  1, 87)  ( 22,  1, 87)


 FLOW MODEL IS TRANSIENT
 FLOW MODEL CONTAINS CONSTANT-HEAD CELLS


 MAXIMUM STEPSIZE DURING WHICH ANY PARTICLE CANNOT MOVE MORE THAN ONE CELL
 =  13.14    (WHEN MIN. R.F.=1)  AT K=  17, I=   1, J=  90

 MAXIMUM STEPSIZE WHICH MEETS STABILITY CRITERION OF THE ADVECTION TERM
 (FOR PURE FINITE-DIFFERENCE OPTION, MIXELM=0) 
 =  7.971    (WHEN MIN. R.F.=1)  AT K=  16, I=   1, J=  90


 TOTAL NUMBER OF POINT SOURCES/SINKS PRESENT IN THE FLOW MODEL =    30

 MAXIMUM STEPSIZE WHICH MEETS STABILITY CRITERION OF THE SINK & SOURCE TERM
 =  12.08    (WHEN MIN. R.F.=1)  AT K=  17, I=   1, J=  91

 MAXIMUM STEPSIZE WHICH MEETS STABILITY CRITERION OF THE DISPERSION TERM
 =  4.337    (WHEN MIN. R.F.=1)  AT K=  17, I=   1, J=  90
     1 CALLS TO GCG PACKAGE FOR TRANSPORT TIME STEP 206 IN FLOW TIME STEP   1 STRESS PERIOD   1
     8 TOTAL ITERATIONS
     1 CALLS TO GCG PACKAGE FOR TRANSPORT TIME STEP 206 IN FLOW TIME STEP   1 STRESS PERIOD   1
     8 TOTAL ITERATIONS
 
 SOLVING FOR HEAD 


     2 CALLS TO PCG ROUTINE FOR TIME STEP   1 IN STRESS PERIOD    1
     9 TOTAL ITERATIONS

 MAXIMUM HEAD CHANGE FOR EACH ITERATION (1 INDICATES THE FIRST INNER ITERATION):

    HEAD CHANGE    HEAD CHANGE    HEAD CHANGE    HEAD CHANGE    HEAD CHANGE 
   LAYER,ROW,COL  LAYER,ROW,COL  LAYER,ROW,COL  LAYER,ROW,COL  LAYER,ROW,COL
 ---------------------------------------------------------------------------
  1  0.1383E-01  0 -0.4146E-02  0 -0.4060E-02  0 -0.9727E-02  0  0.1093E-01
   ( 15,  1, 86)  ( 17,  1, 89)  (  8,  1, 12)  ( 11,  1, 55)  ( 11,  1, 55)
  0 -0.2001E-02  0 -0.1298E-02  0 -0.7669E-03  1  0.2577E-03
   ( 11,  1, 52)  ( 11,  1, 70)  ( 11,  1, 50)  ( 11,  1, 50)

 MAXIMUM RESIDUAL FOR EACH ITERATION (1 INDICATES THE FIRST INNER ITERATION):

    RESIDUAL       RESIDUAL       RESIDUAL       RESIDUAL       RESIDUAL    
   LAYER,ROW,COL  LAYER,ROW,COL  LAYER,ROW,COL  LAYER,ROW,COL  LAYER,ROW,COL
 ---------------------------------------------------------------------------
  1  0.1344E+06  0 -0.9572E+05  0 -0.9496E+05  0 -0.2292E+05  0   5127.    
   ( 21,  1, 89)  ( 19,  1, 89)  ( 19,  1, 89)  ( 19,  1, 89)  ( 17,  1, 88)
  0   2792.      0   2152.      0   660.6      1   572.6    
   ( 22,  1, 87)  ( 22,  1, 87)  ( 22,  1, 87)  ( 22,  1, 87)


 FLOW MODEL IS TRANSIENT
 FLOW MODEL CONTAINS CONSTANT-HEAD CELLS


 MAXIMUM STEPSIZE DURING WHICH ANY PARTICLE CANNOT MOVE MORE THAN ONE CELL
 =  12.85    (WHEN MIN. R.F.=1)  AT K=  17, I=   1, J=  90

 MAXIMUM STEPSIZE WHICH MEETS STABILITY CRITERION OF THE ADVECTION TERM
 (FOR PURE FINITE-DIFFERENCE OPTION, MIXELM=0) 
 =  8.031    (WHEN MIN. R.F.=1)  AT K=  16, I=   1, J=  90


 TOTAL NUMBER OF POINT SOURCES/SINKS PRESENT IN THE FLOW MODEL =    30

 MAXIMUM STEPSIZE WHICH MEETS STABILITY CRITERION OF THE SINK & SOURCE TERM
 =  12.18    (WHEN MIN. R.F.=1)  AT K=  17, I=   1, J=  91

 MAXIMUM STEPSIZE WHICH MEETS STABILITY CRITERION OF THE DISPERSION TERM
 =  4.024    (WHEN MIN. R.F.=1)  AT K=  17, I=   1, J=  90
     1 CALLS TO GCG PACKAGE FOR TRANSPORT TIME STEP 207 IN FLOW TIME STEP   1 STRESS PERIOD   1
     8 TOTAL ITERATIONS
     1 CALLS TO GCG PACKAGE FOR TRANSPORT TIME STEP 207 IN FLOW TIME STEP   1 STRESS PERIOD   1
     9 TOTAL ITERATIONS
 
 SOLVING FOR HEAD 


     3 CALLS TO PCG ROUTINE FOR TIME STEP   1 IN STRESS PERIOD    1
    10 TOTAL ITERATIONS

 MAXIMUM HEAD CHANGE FOR EACH ITERATION (1 INDICATES THE FIRST INNER ITERATION):

    HEAD CHANGE    HEAD CHANGE    HEAD CHANGE    HEAD CHANGE    HEAD CHANGE 
   LAYER,ROW,COL  LAYER,ROW,COL  LAYER,ROW,COL  LAYER,ROW,COL  LAYER,ROW,COL
 ---------------------------------------------------------------------------
  1 -0.1336E-01  0  0.3732E-02  0  0.2311E-02  0  0.8666E-02  0 -0.8721E-02
   ( 15,  1, 86)  ( 17,  1, 89)  (  7,  1, 12)  (  9,  1, 51)  (  9,  1, 51)
  0 -0.9599E-03  1  0.1183E-02  0  0.1140E-02  0 -0.3708E-03  1  0.1085E-03
   ( 11,  1, 40)  ( 11,  1, 68)  ( 11,  1, 62)  ( 11,  1, 67)  (  8,  1, 12)

 MAXIMUM RESIDUAL FOR EACH ITERATION (1 INDICATES THE FIRST INNER ITERATION):

    RESIDUAL       RESIDUAL       RESIDUAL       RESIDUAL       RESIDUAL    
   LAYER,ROW,COL  LAYER,ROW,COL  LAYER,ROW,COL  LAYER,ROW,COL  LAYER,ROW,COL
 ---------------------------------------------------------------------------
  1 -0.1308E+06  0  0.9171E+05  0  0.9006E+05  0  0.3771E+05  0   6249.    
   ( 21,  1, 89)  ( 19,  1, 89)  ( 19,  1, 89)  ( 19,  1, 89)  ( 17,  1, 87)
  0  -2881.      1  -2294.      0  -922.1      0  -694.9      1  -687.8    
   ( 22,  1, 87)  ( 22,  1, 87)  ( 22,  1, 87)  ( 22,  1, 87)  ( 22,  1, 87)


 FLOW MODEL IS TRANSIENT
 FLOW MODEL CONTAINS CONSTANT-HEAD CELLS


 MAXIMUM STEPSIZE DURING WHICH ANY PARTICLE CANNOT MOVE MORE THAN ONE CELL
 =  13.23    (WHEN MIN. R.F.=1)  AT K=  17, I=   1, J=  90

 MAXIMUM STEPSIZE WHICH MEETS STABILITY CRITERION OF THE ADVECTION TERM
 (FOR PURE FINITE-DIFFERENCE OPTION, MIXELM=0) 
 =  8.004    (WHEN MIN. R.F.=1)  AT K=  16, I=   1, J=  90


 TOTAL NUMBER OF POINT SOURCES/SINKS PRESENT IN THE FLOW MODEL =    30

 MAXIMUM STEPSIZE WHICH MEETS STABILITY CRITERION OF THE SINK & SOURCE TERM
 =  12.17    (WHEN MIN. R.F.=1)  AT K=  17, I=   1, J=  91

 MAXIMUM STEPSIZE WHICH MEETS STABILITY CRITERION OF THE DISPERSION TERM
 =  4.374    (WHEN MIN. R.F.=1)  AT K=  17, I=   1, J=  90
     1 CALLS TO GCG PACKAGE FOR TRANSPORT TIME STEP 208 IN FLOW TIME STEP   1 STRESS PERIOD   1
     9 TOTAL ITERATIONS
     1 CALLS TO GCG PACKAGE FOR TRANSPORT TIME STEP 208 IN FLOW TIME STEP   1 STRESS PERIOD   1
     8 TOTAL ITERATIONS
 
 SOLVING FOR HEAD 


     2 CALLS TO PCG ROUTINE FOR TIME STEP   1 IN STRESS PERIOD    1
     9 TOTAL ITERATIONS

 MAXIMUM HEAD CHANGE FOR EACH ITERATION (1 INDICATES THE FIRST INNER ITERATION):

    HEAD CHANGE    HEAD CHANGE    HEAD CHANGE    HEAD CHANGE    HEAD CHANGE 
   LAYER,ROW,COL  LAYER,ROW,COL  LAYER,ROW,COL  LAYER,ROW,COL  LAYER,ROW,COL
 ---------------------------------------------------------------------------
  1  0.1327E-01  0  0.9763E-02  0 -0.9193E-02  0 -0.7375E-02  0  0.9977E-02
   ( 15,  1, 86)  (  8,  1, 12)  (  8,  1, 12)  ( 11,  1, 62)  ( 11,  1, 62)
  0 -0.3030E-02  0 -0.1338E-02  0  0.8495E-03  1  0.8215E-03
   ( 11,  1, 62)  ( 11,  1, 51)  ( 11,  1, 50)  ( 11,  1, 69)

 MAXIMUM RESIDUAL FOR EACH ITERATION (1 INDICATES THE FIRST INNER ITERATION):

    RESIDUAL       RESIDUAL       RESIDUAL       RESIDUAL       RESIDUAL    
   LAYER,ROW,COL  LAYER,ROW,COL  LAYER,ROW,COL  LAYER,ROW,COL  LAYER,ROW,COL
 ---------------------------------------------------------------------------
  1  0.1342E+06  0 -0.9188E+05  0 -0.9248E+05  0 -0.1400E+05  0   3701.    
   ( 21,  1, 89)  ( 19,  1, 89)  ( 19,  1, 89)  ( 19,  1, 89)  ( 18,  1, 89)
  0   2870.      0   1921.      0   742.2      1   633.2    
   ( 22,  1, 87)  ( 22,  1, 87)  ( 22,  1, 87)  ( 22,  1, 87)


 FLOW MODEL IS TRANSIENT
 FLOW MODEL CONTAINS CONSTANT-HEAD CELLS


 MAXIMUM STEPSIZE DURING WHICH ANY PARTICLE CANNOT MOVE MORE THAN ONE CELL
 =  12.86    (WHEN MIN. R.F.=1)  AT K=  17, I=   1, J=  90

 MAXIMUM STEPSIZE WHICH MEETS STABILITY CRITERION OF THE ADVECTION TERM
 (FOR PURE FINITE-DIFFERENCE OPTION, MIXELM=0) 
 =  8.032    (WHEN MIN. R.F.=1)  AT K=  16, I=   1, J=  90


 TOTAL NUMBER OF POINT SOURCES/SINKS PRESENT IN THE FLOW MODEL =    30

 MAXIMUM STEPSIZE WHICH MEETS STABILITY CRITERION OF THE SINK & SOURCE TERM
 =  12.19    (WHEN MIN. R.F.=1)  AT K=  17, I=   1, J=  91

 MAXIMUM STEPSIZE WHICH MEETS STABILITY CRITERION OF THE DISPERSION TERM
 =  4.037    (WHEN MIN. R.F.=1)  AT K=  17, I=   1, J=  90
     1 CALLS TO GCG PACKAGE FOR TRANSPORT TIME STEP 209 IN FLOW TIME STEP   1 STRESS PERIOD   1
     8 TOTAL ITERATIONS
     1 CALLS TO GCG PACKAGE FOR TRANSPORT TIME STEP 209 IN FLOW TIME STEP   1 STRESS PERIOD   1
     9 TOTAL ITERATIONS
 
 SOLVING FOR HEAD 


     2 CALLS TO PCG ROUTINE FOR TIME STEP   1 IN STRESS PERIOD    1
     8 TOTAL ITERATIONS

 MAXIMUM HEAD CHANGE FOR EACH ITERATION (1 INDICATES THE FIRST INNER ITERATION):

    HEAD CHANGE    HEAD CHANGE    HEAD CHANGE    HEAD CHANGE    HEAD CHANGE 
   LAYER,ROW,COL  LAYER,ROW,COL  LAYER,ROW,COL  LAYER,ROW,COL  LAYER,ROW,COL
 ---------------------------------------------------------------------------
  1 -0.1343E-01  0  0.3596E-02  0  0.3430E-02  0  0.1102E-01  0 -0.1226E-01
   ( 15,  1, 86)  ( 17,  1, 89)  (  8,  1, 12)  ( 11,  1, 50)  ( 11,  1, 50)
  0 -0.2077E-02  0  0.7828E-03  1  0.5096E-03
   ( 11,  1, 64)  ( 11,  1, 63)  ( 11,  1, 37)

 MAXIMUM RESIDUAL FOR EACH ITERATION (1 INDICATES THE FIRST INNER ITERATION):

    RESIDUAL       RESIDUAL       RESIDUAL       RESIDUAL       RESIDUAL    
   LAYER,ROW,COL  LAYER,ROW,COL  LAYER,ROW,COL  LAYER,ROW,COL  LAYER,ROW,COL
 ---------------------------------------------------------------------------
  1 -0.1353E+06  0  0.9522E+05  0  0.8836E+05  0  0.3070E+05  0   5772.    
   ( 21,  1, 89)  ( 19,  1, 89)  ( 19,  1, 89)  ( 19,  1, 89)  ( 17,  1, 87)
  0  -2816.      0  -2554.      1  -2017.    
   ( 22,  1, 87)  ( 22,  1, 87)  ( 22,  1, 87)


 FLOW MODEL IS TRANSIENT
 FLOW MODEL CONTAINS CONSTANT-HEAD CELLS


 MAXIMUM STEPSIZE DURING WHICH ANY PARTICLE CANNOT MOVE MORE THAN ONE CELL
 =  13.21    (WHEN MIN. R.F.=1)  AT K=  17, I=   1, J=  90

 MAXIMUM STEPSIZE WHICH MEETS STABILITY CRITERION OF THE ADVECTION TERM
 (FOR PURE FINITE-DIFFERENCE OPTION, MIXELM=0) 
 =  8.002    (WHEN MIN. R.F.=1)  AT K=  16, I=   1, J=  90


 TOTAL NUMBER OF POINT SOURCES/SINKS PRESENT IN THE FLOW MODEL =    30

 MAXIMUM STEPSIZE WHICH MEETS STABILITY CRITERION OF THE SINK & SOURCE TERM
 =  12.16    (WHEN MIN. R.F.=1)  AT K=  17, I=   1, J=  91

 MAXIMUM STEPSIZE WHICH MEETS STABILITY CRITERION OF THE DISPERSION TERM
 =  4.357    (WHEN MIN. R.F.=1)  AT K=  17, I=   1, J=  90
     1 CALLS TO GCG PACKAGE FOR TRANSPORT TIME STEP 210 IN FLOW TIME STEP   1 STRESS PERIOD   1
     8 TOTAL ITERATIONS
  MAXIMUM CONCENTRATION CHANGES FOR EACH ITERATION:
  MAX. CHANGE LAYER,ROW,COL MAX. CHANGE LAYER,ROW,COL MAX. CHANGE LAYER,ROW,COL MAX. CHANGE LAYER,ROW,COL MAX. CHANGE LAYER,ROW,COL
 ------------------------------------------------------------------------------------------------------------------------------------
   0.4905E-01 ( 20,  1, 87)  0.3349E-02 ( 19,  1, 87)  0.2185E-02 ( 18,  1, 87)  0.2183E-03 ( 16,  1, 88)  0.1468E-03 ( 16,  1, 89)
   0.2767E-04 ( 16,  1, 90)  0.3591E-05 ( 21,  1, 78)  0.1089E-06 ( 16,  1, 89)
     1 CALLS TO GCG PACKAGE FOR TRANSPORT TIME STEP 210 IN FLOW TIME STEP   1 STRESS PERIOD   1
     8 TOTAL ITERATIONS
  MAXIMUM CONCENTRATION CHANGES FOR EACH ITERATION:
  MAX. CHANGE LAYER,ROW,COL MAX. CHANGE LAYER,ROW,COL MAX. CHANGE LAYER,ROW,COL MAX. CHANGE LAYER,ROW,COL MAX. CHANGE LAYER,ROW,COL
 ------------------------------------------------------------------------------------------------------------------------------------
   0.5798E-01 ( 19,  1, 88)  0.6508E-02 ( 19,  1, 87)  0.2609E-02 ( 18,  1, 87)  0.8336E-03 ( 18,  1, 87)  0.1319E-03 ( 16,  1, 89)
   0.3930E-04 ( 17,  1, 90)  0.7639E-05 ( 17,  1, 90)  0.8422E-06 ( 17,  1, 90)



 >>>>>>>>>>>>>>>>>>>>>>>>>>>>>>>>>>>>>>>>>>>>>>>>>>>>>>>FOR COMPONENT NO. 01<<<<<<<<<<<<<<<<<<<<<<<<<<<<<<<<<<<<<<<<<<<<<<<<<<<<<<<


                                            -------------------------------------------
                                                      TRANSPORT STEP NO.  210
                                            -------------------------------------------

 TOTAL ELAPSED TIME SINCE BEGINNING OF SIMULATION =   10500.00    D   
 .....................................................................

                     CUMMULATIVE MASS BUDGETS AT END OF TRANSPORT STEP  210, TIME STEP    1, STRESS PERIOD    1
                     ------------------------------------------------------------------------------------------

                                                             IN                           OUT
                                                      ----------------             ----------------
                               CONSTANT CONCENTRATION:    0.000000                    0.000000    
                                        CONSTANT HEAD:   0.4158118E+09              -0.4156356E+09
                                                WELLS:    0.000000                    0.000000    
                                             RECHARGE:    0.000000                    0.000000    
                               1ST/0TH ORDER REACTION:    0.000000                    0.000000    
                                MASS STORAGE (SOLUTE):   0.5823126E+08              -0.5840754E+08
                            ---------------------------------------------------------------------------
                                              [TOTAL]:   0.4740435E+09 KG           -0.4740436E+09 KG  

                                                          NET (IN - OUT):   -64.30506    
                                                   DISCREPANCY (PERCENT):  -0.1356522E-04



 >>>>>>>>>>>>>>>>>>>>>>>>>>>>>>>>>>>>>>>>>>>>>>>>>>>>>>>FOR COMPONENT NO. 02<<<<<<<<<<<<<<<<<<<<<<<<<<<<<<<<<<<<<<<<<<<<<<<<<<<<<<<


                                            -------------------------------------------
                                                      TRANSPORT STEP NO.  210
                                            -------------------------------------------

 TOTAL ELAPSED TIME SINCE BEGINNING OF SIMULATION =   10500.00    D   
 .....................................................................

                     CUMMULATIVE MASS BUDGETS AT END OF TRANSPORT STEP  210, TIME STEP    1, STRESS PERIOD    1
                     ------------------------------------------------------------------------------------------

                                                             IN                           OUT
                                                      ----------------             ----------------
                               CONSTANT CONCENTRATION:    0.000000                    0.000000    
                                        CONSTANT HEAD:    0.000000                  -0.3382418E+11
                                                WELLS:    0.000000                    0.000000    
                                             RECHARGE:    0.000000                    0.000000    
                               1ST/0TH ORDER REACTION:   0.1737750E+12                0.000000    
                                MASS STORAGE (SOLUTE):   0.7387044E+10              -0.1473379E+12
                            ---------------------------------------------------------------------------
                                              [TOTAL]:   0.1811622E+12 KG           -0.1811622E+12 KG  

                                                          NET (IN - OUT):   -3068.729    
                                                   DISCREPANCY (PERCENT):  -0.1693913E-05
 
 SOLVING FOR HEAD 


     2 CALLS TO PCG ROUTINE FOR TIME STEP   1 IN STRESS PERIOD    1
     9 TOTAL ITERATIONS

 MAXIMUM HEAD CHANGE FOR EACH ITERATION (1 INDICATES THE FIRST INNER ITERATION):

    HEAD CHANGE    HEAD CHANGE    HEAD CHANGE    HEAD CHANGE    HEAD CHANGE 
   LAYER,ROW,COL  LAYER,ROW,COL  LAYER,ROW,COL  LAYER,ROW,COL  LAYER,ROW,COL
 ---------------------------------------------------------------------------
  1  0.1384E-01  0  0.6369E-02  0 -0.4330E-02  0  0.1001E-01  0 -0.6931E-02
   ( 15,  1, 86)  ( 11,  1, 36)  (  8,  1, 12)  (  6,  1, 43)  (  8,  1, 45)
  0 -0.4452E-02  0  0.1453E-02  0 -0.9230E-03  1  0.7212E-03
   ( 11,  1, 50)  ( 11,  1, 50)  ( 11,  1, 56)  ( 11,  1, 56)

 MAXIMUM RESIDUAL FOR EACH ITERATION (1 INDICATES THE FIRST INNER ITERATION):

    RESIDUAL       RESIDUAL       RESIDUAL       RESIDUAL       RESIDUAL    
   LAYER,ROW,COL  LAYER,ROW,COL  LAYER,ROW,COL  LAYER,ROW,COL  LAYER,ROW,COL
 ---------------------------------------------------------------------------
  1  0.1331E+06  0 -0.9389E+05  0 -0.9316E+05  0 -0.7543E+05  0  -6101.    
   ( 21,  1, 89)  ( 19,  1, 89)  ( 19,  1, 89)  ( 19,  1, 89)  ( 17,  1, 87)
  0   2928.      0   2665.      0   1464.      1   1303.    
   ( 17,  1, 88)  ( 22,  1, 87)  ( 22,  1, 87)  ( 22,  1, 87)


 FLOW MODEL IS TRANSIENT
 FLOW MODEL CONTAINS CONSTANT-HEAD CELLS


 MAXIMUM STEPSIZE DURING WHICH ANY PARTICLE CANNOT MOVE MORE THAN ONE CELL
 =  12.91    (WHEN MIN. R.F.=1)  AT K=  17, I=   1, J=  90

 MAXIMUM STEPSIZE WHICH MEETS STABILITY CRITERION OF THE ADVECTION TERM
 (FOR PURE FINITE-DIFFERENCE OPTION, MIXELM=0) 
 =  8.055    (WHEN MIN. R.F.=1)  AT K=  16, I=   1, J=  90


 TOTAL NUMBER OF POINT SOURCES/SINKS PRESENT IN THE FLOW MODEL =    30

 MAXIMUM STEPSIZE WHICH MEETS STABILITY CRITERION OF THE SINK & SOURCE TERM
 =  12.27    (WHEN MIN. R.F.=1)  AT K=  17, I=   1, J=  91

 MAXIMUM STEPSIZE WHICH MEETS STABILITY CRITERION OF THE DISPERSION TERM
 =  4.051    (WHEN MIN. R.F.=1)  AT K=  17, I=   1, J=  90
     1 CALLS TO GCG PACKAGE FOR TRANSPORT TIME STEP 211 IN FLOW TIME STEP   1 STRESS PERIOD   1
     8 TOTAL ITERATIONS
     1 CALLS TO GCG PACKAGE FOR TRANSPORT TIME STEP 211 IN FLOW TIME STEP   1 STRESS PERIOD   1
     9 TOTAL ITERATIONS
 
 SOLVING FOR HEAD 


     2 CALLS TO PCG ROUTINE FOR TIME STEP   1 IN STRESS PERIOD    1
     8 TOTAL ITERATIONS

 MAXIMUM HEAD CHANGE FOR EACH ITERATION (1 INDICATES THE FIRST INNER ITERATION):

    HEAD CHANGE    HEAD CHANGE    HEAD CHANGE    HEAD CHANGE    HEAD CHANGE 
   LAYER,ROW,COL  LAYER,ROW,COL  LAYER,ROW,COL  LAYER,ROW,COL  LAYER,ROW,COL
 ---------------------------------------------------------------------------
  1 -0.1371E-01  0  0.4070E-02  0  0.3777E-02  0 -0.1056E-01  0  0.1099E-01
   ( 15,  1, 86)  ( 17,  1, 89)  (  8,  1, 12)  ( 11,  1, 55)  ( 11,  1, 55)
  0  0.1990E-02  0  0.9547E-03  1  0.6312E-03
   ( 11,  1, 68)  ( 11,  1, 49)  ( 11,  1, 56)

 MAXIMUM RESIDUAL FOR EACH ITERATION (1 INDICATES THE FIRST INNER ITERATION):

    RESIDUAL       RESIDUAL       RESIDUAL       RESIDUAL       RESIDUAL    
   LAYER,ROW,COL  LAYER,ROW,COL  LAYER,ROW,COL  LAYER,ROW,COL  LAYER,ROW,COL
 ---------------------------------------------------------------------------
  1 -0.1353E+06  0  0.9622E+05  0  0.9539E+05  0  0.2023E+05  0  -4910.    
   ( 21,  1, 89)  ( 19,  1, 89)  ( 19,  1, 89)  ( 19,  1, 89)  ( 17,  1, 88)
  0  -2855.      0  -2579.      1  -2009.    
   ( 22,  1, 87)  ( 22,  1, 87)  ( 22,  1, 87)


 FLOW MODEL IS TRANSIENT
 FLOW MODEL CONTAINS CONSTANT-HEAD CELLS


 MAXIMUM STEPSIZE DURING WHICH ANY PARTICLE CANNOT MOVE MORE THAN ONE CELL
 =  13.23    (WHEN MIN. R.F.=1)  AT K=  17, I=   1, J=  90

 MAXIMUM STEPSIZE WHICH MEETS STABILITY CRITERION OF THE ADVECTION TERM
 (FOR PURE FINITE-DIFFERENCE OPTION, MIXELM=0) 
 =  8.005    (WHEN MIN. R.F.=1)  AT K=  16, I=   1, J=  90


 TOTAL NUMBER OF POINT SOURCES/SINKS PRESENT IN THE FLOW MODEL =    30

 MAXIMUM STEPSIZE WHICH MEETS STABILITY CRITERION OF THE SINK & SOURCE TERM
 =  12.18    (WHEN MIN. R.F.=1)  AT K=  17, I=   1, J=  91

 MAXIMUM STEPSIZE WHICH MEETS STABILITY CRITERION OF THE DISPERSION TERM
 =  4.370    (WHEN MIN. R.F.=1)  AT K=  17, I=   1, J=  90
     1 CALLS TO GCG PACKAGE FOR TRANSPORT TIME STEP 212 IN FLOW TIME STEP   1 STRESS PERIOD   1
    10 TOTAL ITERATIONS
     1 CALLS TO GCG PACKAGE FOR TRANSPORT TIME STEP 212 IN FLOW TIME STEP   1 STRESS PERIOD   1
     8 TOTAL ITERATIONS
 
 SOLVING FOR HEAD 


     2 CALLS TO PCG ROUTINE FOR TIME STEP   1 IN STRESS PERIOD    1
     9 TOTAL ITERATIONS

 MAXIMUM HEAD CHANGE FOR EACH ITERATION (1 INDICATES THE FIRST INNER ITERATION):

    HEAD CHANGE    HEAD CHANGE    HEAD CHANGE    HEAD CHANGE    HEAD CHANGE 
   LAYER,ROW,COL  LAYER,ROW,COL  LAYER,ROW,COL  LAYER,ROW,COL  LAYER,ROW,COL
 ---------------------------------------------------------------------------
  1  0.1369E-01  0  0.7377E-02  0 -0.3463E-02  0 -0.9386E-02  0  0.6865E-02
   ( 15,  1, 86)  (  8,  1, 50)  (  7,  1, 12)  (  8,  1, 50)  (  6,  1, 47)
  0 -0.5473E-02  0 -0.1758E-02  0 -0.8482E-03  1  0.7072E-03
   ( 11,  1, 63)  ( 11,  1, 55)  ( 11,  1, 70)  ( 11,  1, 70)

 MAXIMUM RESIDUAL FOR EACH ITERATION (1 INDICATES THE FIRST INNER ITERATION):

    RESIDUAL       RESIDUAL       RESIDUAL       RESIDUAL       RESIDUAL    
   LAYER,ROW,COL  LAYER,ROW,COL  LAYER,ROW,COL  LAYER,ROW,COL  LAYER,ROW,COL
 ---------------------------------------------------------------------------
  1  0.1367E+06  0 -0.9768E+05  0 -0.9671E+05  0 -0.7802E+05  0  -6633.    
   ( 21,  1, 89)  ( 19,  1, 89)  ( 19,  1, 89)  ( 19,  1, 89)  ( 17,  1, 87)
  0   3187.      0   2560.      0   1538.      1   1373.    
   ( 17,  1, 88)  ( 22,  1, 87)  ( 22,  1, 87)  ( 22,  1, 87)


 FLOW MODEL IS TRANSIENT
 FLOW MODEL CONTAINS CONSTANT-HEAD CELLS


 MAXIMUM STEPSIZE DURING WHICH ANY PARTICLE CANNOT MOVE MORE THAN ONE CELL
 =  12.88    (WHEN MIN. R.F.=1)  AT K=  17, I=   1, J=  90

 MAXIMUM STEPSIZE WHICH MEETS STABILITY CRITERION OF THE ADVECTION TERM
 (FOR PURE FINITE-DIFFERENCE OPTION, MIXELM=0) 
 =  8.048    (WHEN MIN. R.F.=1)  AT K=  16, I=   1, J=  90


 TOTAL NUMBER OF POINT SOURCES/SINKS PRESENT IN THE FLOW MODEL =    30

 MAXIMUM STEPSIZE WHICH MEETS STABILITY CRITERION OF THE SINK & SOURCE TERM
 =  12.25    (WHEN MIN. R.F.=1)  AT K=  17, I=   1, J=  91

 MAXIMUM STEPSIZE WHICH MEETS STABILITY CRITERION OF THE DISPERSION TERM
 =  4.033    (WHEN MIN. R.F.=1)  AT K=  17, I=   1, J=  90
     1 CALLS TO GCG PACKAGE FOR TRANSPORT TIME STEP 213 IN FLOW TIME STEP   1 STRESS PERIOD   1
     8 TOTAL ITERATIONS
     1 CALLS TO GCG PACKAGE FOR TRANSPORT TIME STEP 213 IN FLOW TIME STEP   1 STRESS PERIOD   1
     9 TOTAL ITERATIONS
 
 SOLVING FOR HEAD 


     2 CALLS TO PCG ROUTINE FOR TIME STEP   1 IN STRESS PERIOD    1
     9 TOTAL ITERATIONS

 MAXIMUM HEAD CHANGE FOR EACH ITERATION (1 INDICATES THE FIRST INNER ITERATION):

    HEAD CHANGE    HEAD CHANGE    HEAD CHANGE    HEAD CHANGE    HEAD CHANGE 
   LAYER,ROW,COL  LAYER,ROW,COL  LAYER,ROW,COL  LAYER,ROW,COL  LAYER,ROW,COL
 ---------------------------------------------------------------------------
  1 -0.1376E-01  0 -0.4292E-02  0  0.4691E-02  0  0.9374E-02  0 -0.1046E-01
   ( 15,  1, 86)  (  7,  1, 12)  (  8,  1, 12)  ( 11,  1, 52)  ( 11,  1, 52)
  0  0.1889E-02  0  0.1181E-02  0 -0.6166E-03  1 -0.2998E-03
   ( 11,  1, 54)  ( 11,  1, 63)  ( 11,  1, 62)  ( 11,  1, 70)

 MAXIMUM RESIDUAL FOR EACH ITERATION (1 INDICATES THE FIRST INNER ITERATION):

    RESIDUAL       RESIDUAL       RESIDUAL       RESIDUAL       RESIDUAL    
   LAYER,ROW,COL  LAYER,ROW,COL  LAYER,ROW,COL  LAYER,ROW,COL  LAYER,ROW,COL
 ---------------------------------------------------------------------------
  1 -0.1349E+06  0  0.9509E+05  0  0.9447E+05  0  0.2356E+05  0  -5199.    
   ( 21,  1, 89)  ( 19,  1, 89)  ( 19,  1, 89)  ( 19,  1, 89)  ( 17,  1, 88)
  0  -2860.      0  -1936.      0  -682.7      1  -600.1    
   ( 22,  1, 87)  ( 22,  1, 87)  ( 22,  1, 87)  ( 22,  1, 87)


 FLOW MODEL IS TRANSIENT
 FLOW MODEL CONTAINS CONSTANT-HEAD CELLS


 MAXIMUM STEPSIZE DURING WHICH ANY PARTICLE CANNOT MOVE MORE THAN ONE CELL
 =  13.23    (WHEN MIN. R.F.=1)  AT K=  17, I=   1, J=  90

 MAXIMUM STEPSIZE WHICH MEETS STABILITY CRITERION OF THE ADVECTION TERM
 (FOR PURE FINITE-DIFFERENCE OPTION, MIXELM=0) 
 =  8.002    (WHEN MIN. R.F.=1)  AT K=  16, I=   1, J=  90


 TOTAL NUMBER OF POINT SOURCES/SINKS PRESENT IN THE FLOW MODEL =    30

 MAXIMUM STEPSIZE WHICH MEETS STABILITY CRITERION OF THE SINK & SOURCE TERM
 =  12.17    (WHEN MIN. R.F.=1)  AT K=  17, I=   1, J=  91

 MAXIMUM STEPSIZE WHICH MEETS STABILITY CRITERION OF THE DISPERSION TERM
 =  4.377    (WHEN MIN. R.F.=1)  AT K=  17, I=   1, J=  90
     1 CALLS TO GCG PACKAGE FOR TRANSPORT TIME STEP 214 IN FLOW TIME STEP   1 STRESS PERIOD   1
     9 TOTAL ITERATIONS
     1 CALLS TO GCG PACKAGE FOR TRANSPORT TIME STEP 214 IN FLOW TIME STEP   1 STRESS PERIOD   1
     8 TOTAL ITERATIONS
 
 SOLVING FOR HEAD 


     3 CALLS TO PCG ROUTINE FOR TIME STEP   1 IN STRESS PERIOD    1
     9 TOTAL ITERATIONS

 MAXIMUM HEAD CHANGE FOR EACH ITERATION (1 INDICATES THE FIRST INNER ITERATION):

    HEAD CHANGE    HEAD CHANGE    HEAD CHANGE    HEAD CHANGE    HEAD CHANGE 
   LAYER,ROW,COL  LAYER,ROW,COL  LAYER,ROW,COL  LAYER,ROW,COL  LAYER,ROW,COL
 ---------------------------------------------------------------------------
  1  0.1332E-01  0 -0.3870E-02  0 -0.2759E-02  0 -0.7991E-02  0  0.8869E-02
   ( 15,  1, 86)  ( 17,  1, 89)  (  7,  1, 12)  ( 10,  1, 51)  (  8,  1, 50)
  0  0.7992E-03  1 -0.1225E-02  0 -0.8707E-03  1  0.1415E-03
   ( 11,  1, 49)  ( 11,  1, 59)  ( 11,  1, 70)  ( 11,  1, 70)

 MAXIMUM RESIDUAL FOR EACH ITERATION (1 INDICATES THE FIRST INNER ITERATION):

    RESIDUAL       RESIDUAL       RESIDUAL       RESIDUAL       RESIDUAL    
   LAYER,ROW,COL  LAYER,ROW,COL  LAYER,ROW,COL  LAYER,ROW,COL  LAYER,ROW,COL
 ---------------------------------------------------------------------------
  1  0.1354E+06  0 -0.9602E+05  0 -0.9179E+05  0 -0.3949E+05  0  -6160.    
   ( 21,  1, 89)  ( 19,  1, 89)  ( 19,  1, 89)  ( 19,  1, 89)  ( 17,  1, 87)
  0   2835.      1   2076.      0   926.2      1   905.8    
   ( 22,  1, 87)  ( 22,  1, 87)  ( 22,  1, 87)  ( 22,  1, 87)


 FLOW MODEL IS TRANSIENT
 FLOW MODEL CONTAINS CONSTANT-HEAD CELLS


 MAXIMUM STEPSIZE DURING WHICH ANY PARTICLE CANNOT MOVE MORE THAN ONE CELL
 =  12.84    (WHEN MIN. R.F.=1)  AT K=  17, I=   1, J=  90

 MAXIMUM STEPSIZE WHICH MEETS STABILITY CRITERION OF THE ADVECTION TERM
 (FOR PURE FINITE-DIFFERENCE OPTION, MIXELM=0) 
 =  8.033    (WHEN MIN. R.F.=1)  AT K=  16, I=   1, J=  90


 TOTAL NUMBER OF POINT SOURCES/SINKS PRESENT IN THE FLOW MODEL =    30

 MAXIMUM STEPSIZE WHICH MEETS STABILITY CRITERION OF THE SINK & SOURCE TERM
 =  12.19    (WHEN MIN. R.F.=1)  AT K=  17, I=   1, J=  91

 MAXIMUM STEPSIZE WHICH MEETS STABILITY CRITERION OF THE DISPERSION TERM
 =  4.023    (WHEN MIN. R.F.=1)  AT K=  17, I=   1, J=  90
     1 CALLS TO GCG PACKAGE FOR TRANSPORT TIME STEP 215 IN FLOW TIME STEP   1 STRESS PERIOD   1
     8 TOTAL ITERATIONS
  MAXIMUM CONCENTRATION CHANGES FOR EACH ITERATION:
  MAX. CHANGE LAYER,ROW,COL MAX. CHANGE LAYER,ROW,COL MAX. CHANGE LAYER,ROW,COL MAX. CHANGE LAYER,ROW,COL MAX. CHANGE LAYER,ROW,COL
 ------------------------------------------------------------------------------------------------------------------------------------
   0.5280E-01 ( 20,  1, 87)  0.4217E-02 ( 19,  1, 89)  0.2167E-02 ( 17,  1, 86)  0.4820E-03 ( 20,  1, 89)  0.9635E-04 ( 16,  1, 89)
   0.2026E-04 ( 20,  1, 89)  0.1935E-04 ( 16,  1, 90)  0.7436E-06 ( 17,  1, 90)
     1 CALLS TO GCG PACKAGE FOR TRANSPORT TIME STEP 215 IN FLOW TIME STEP   1 STRESS PERIOD   1
     9 TOTAL ITERATIONS
  MAXIMUM CONCENTRATION CHANGES FOR EACH ITERATION:
  MAX. CHANGE LAYER,ROW,COL MAX. CHANGE LAYER,ROW,COL MAX. CHANGE LAYER,ROW,COL MAX. CHANGE LAYER,ROW,COL MAX. CHANGE LAYER,ROW,COL
 ------------------------------------------------------------------------------------------------------------------------------------
   0.6307E-01 ( 20,  1, 87)  0.5236E-02 ( 19,  1, 86)  0.2409E-02 ( 19,  1, 89)  0.1162E-02 ( 19,  1, 89)  0.3543E-03 ( 16,  1, 89)
   0.2627E-03 ( 16,  1, 89)  0.1369E-04 ( 17,  1, 90)  0.1106E-05 ( 17,  1, 90)  0.1725E-06 ( 18,  1, 90)
 
 SOLVING FOR HEAD 


     2 CALLS TO PCG ROUTINE FOR TIME STEP   1 IN STRESS PERIOD    1
     8 TOTAL ITERATIONS

 MAXIMUM HEAD CHANGE FOR EACH ITERATION (1 INDICATES THE FIRST INNER ITERATION):

    HEAD CHANGE    HEAD CHANGE    HEAD CHANGE    HEAD CHANGE    HEAD CHANGE 
   LAYER,ROW,COL  LAYER,ROW,COL  LAYER,ROW,COL  LAYER,ROW,COL  LAYER,ROW,COL
 ---------------------------------------------------------------------------
  1 -0.1336E-01  0 -0.1864E-01  0  0.1371E-01  0  0.1496E-01  0 -0.1340E-01
   ( 15,  1, 86)  (  8,  1, 12)  (  8,  1, 12)  ( 11,  1, 68)  ( 11,  1, 68)
  0 -0.2073E-02  0  0.7657E-03  1  0.7392E-03
   ( 11,  1, 52)  ( 11,  1, 68)  ( 11,  1, 60)

 MAXIMUM RESIDUAL FOR EACH ITERATION (1 INDICATES THE FIRST INNER ITERATION):

    RESIDUAL       RESIDUAL       RESIDUAL       RESIDUAL       RESIDUAL    
   LAYER,ROW,COL  LAYER,ROW,COL  LAYER,ROW,COL  LAYER,ROW,COL  LAYER,ROW,COL
 ---------------------------------------------------------------------------
  1 -0.1346E+06  0 -0.1195E+06  0  0.9332E+05  0  0.3302E+05  0   5845.    
   ( 21,  1, 89)  ( 21,  1, 89)  ( 19,  1, 89)  ( 19,  1, 89)  ( 17,  1, 87)
  0  -2808.      0  -2544.      1  -2058.    
   ( 22,  1, 87)  ( 22,  1, 87)  ( 22,  1, 87)


 FLOW MODEL IS TRANSIENT
 FLOW MODEL CONTAINS CONSTANT-HEAD CELLS


 MAXIMUM STEPSIZE DURING WHICH ANY PARTICLE CANNOT MOVE MORE THAN ONE CELL
 =  13.21    (WHEN MIN. R.F.=1)  AT K=  17, I=   1, J=  90

 MAXIMUM STEPSIZE WHICH MEETS STABILITY CRITERION OF THE ADVECTION TERM
 (FOR PURE FINITE-DIFFERENCE OPTION, MIXELM=0) 
 =  8.004    (WHEN MIN. R.F.=1)  AT K=  16, I=   1, J=  90


 TOTAL NUMBER OF POINT SOURCES/SINKS PRESENT IN THE FLOW MODEL =    30

 MAXIMUM STEPSIZE WHICH MEETS STABILITY CRITERION OF THE SINK & SOURCE TERM
 =  12.17    (WHEN MIN. R.F.=1)  AT K=  17, I=   1, J=  91

 MAXIMUM STEPSIZE WHICH MEETS STABILITY CRITERION OF THE DISPERSION TERM
 =  4.355    (WHEN MIN. R.F.=1)  AT K=  17, I=   1, J=  90
     1 CALLS TO GCG PACKAGE FOR TRANSPORT TIME STEP 216 IN FLOW TIME STEP   1 STRESS PERIOD   1
    10 TOTAL ITERATIONS
     1 CALLS TO GCG PACKAGE FOR TRANSPORT TIME STEP 216 IN FLOW TIME STEP   1 STRESS PERIOD   1
     8 TOTAL ITERATIONS
 
 SOLVING FOR HEAD 


     2 CALLS TO PCG ROUTINE FOR TIME STEP   1 IN STRESS PERIOD    1
     9 TOTAL ITERATIONS

 MAXIMUM HEAD CHANGE FOR EACH ITERATION (1 INDICATES THE FIRST INNER ITERATION):

    HEAD CHANGE    HEAD CHANGE    HEAD CHANGE    HEAD CHANGE    HEAD CHANGE 
   LAYER,ROW,COL  LAYER,ROW,COL  LAYER,ROW,COL  LAYER,ROW,COL  LAYER,ROW,COL
 ---------------------------------------------------------------------------
  1  0.1387E-01  0  0.7629E-02  0 -0.3303E-02  0 -0.8848E-02  0  0.5961E-02
   ( 15,  1, 86)  (  9,  1, 50)  (  7,  1, 12)  ( 10,  1, 51)  (  9,  1, 50)
  0  0.3838E-02  0 -0.1617E-02  0 -0.7650E-03  1  0.6021E-03
   ( 11,  1, 59)  ( 11,  1, 59)  ( 11,  1, 62)  ( 11,  1, 62)

 MAXIMUM RESIDUAL FOR EACH ITERATION (1 INDICATES THE FIRST INNER ITERATION):

    RESIDUAL       RESIDUAL       RESIDUAL       RESIDUAL       RESIDUAL    
   LAYER,ROW,COL  LAYER,ROW,COL  LAYER,ROW,COL  LAYER,ROW,COL  LAYER,ROW,COL
 ---------------------------------------------------------------------------
  1  0.1336E+06  0 -0.9385E+05  0 -0.9287E+05  0 -0.7694E+05  0  -6151.    
   ( 21,  1, 89)  ( 19,  1, 89)  ( 19,  1, 89)  ( 19,  1, 89)  ( 17,  1, 87)
  0   2877.      0   2658.      0   1055.      1   938.6    
   ( 17,  1, 88)  ( 22,  1, 87)  ( 22,  1, 87)  ( 22,  1, 87)


 FLOW MODEL IS TRANSIENT
 FLOW MODEL CONTAINS CONSTANT-HEAD CELLS


 MAXIMUM STEPSIZE DURING WHICH ANY PARTICLE CANNOT MOVE MORE THAN ONE CELL
 =  12.92    (WHEN MIN. R.F.=1)  AT K=  17, I=   1, J=  90

 MAXIMUM STEPSIZE WHICH MEETS STABILITY CRITERION OF THE ADVECTION TERM
 (FOR PURE FINITE-DIFFERENCE OPTION, MIXELM=0) 
 =  8.061    (WHEN MIN. R.F.=1)  AT K=  16, I=   1, J=  90


 TOTAL NUMBER OF POINT SOURCES/SINKS PRESENT IN THE FLOW MODEL =    30

 MAXIMUM STEPSIZE WHICH MEETS STABILITY CRITERION OF THE SINK & SOURCE TERM
 =  12.29    (WHEN MIN. R.F.=1)  AT K=  17, I=   1, J=  91

 MAXIMUM STEPSIZE WHICH MEETS STABILITY CRITERION OF THE DISPERSION TERM
 =  4.054    (WHEN MIN. R.F.=1)  AT K=  17, I=   1, J=  90
     1 CALLS TO GCG PACKAGE FOR TRANSPORT TIME STEP 217 IN FLOW TIME STEP   1 STRESS PERIOD   1
     8 TOTAL ITERATIONS
     1 CALLS TO GCG PACKAGE FOR TRANSPORT TIME STEP 217 IN FLOW TIME STEP   1 STRESS PERIOD   1
     9 TOTAL ITERATIONS
 
 SOLVING FOR HEAD 


     2 CALLS TO PCG ROUTINE FOR TIME STEP   1 IN STRESS PERIOD    1
     9 TOTAL ITERATIONS

 MAXIMUM HEAD CHANGE FOR EACH ITERATION (1 INDICATES THE FIRST INNER ITERATION):

    HEAD CHANGE    HEAD CHANGE    HEAD CHANGE    HEAD CHANGE    HEAD CHANGE 
   LAYER,ROW,COL  LAYER,ROW,COL  LAYER,ROW,COL  LAYER,ROW,COL  LAYER,ROW,COL
 ---------------------------------------------------------------------------
  1 -0.1368E-01  0  0.3990E-02  0  0.3444E-02  0  0.1103E-01  0 -0.1209E-01
   ( 15,  1, 86)  ( 17,  1, 89)  (  8,  1, 12)  ( 11,  1, 54)  ( 11,  1, 54)
  0  0.1811E-02  0  0.1073E-02  0  0.8227E-03  1 -0.5070E-03
   ( 11,  1, 52)  ( 11,  1, 70)  ( 11,  1, 61)  ( 11,  1, 62)

 MAXIMUM RESIDUAL FOR EACH ITERATION (1 INDICATES THE FIRST INNER ITERATION):

    RESIDUAL       RESIDUAL       RESIDUAL       RESIDUAL       RESIDUAL    
   LAYER,ROW,COL  LAYER,ROW,COL  LAYER,ROW,COL  LAYER,ROW,COL  LAYER,ROW,COL
 ---------------------------------------------------------------------------
  1 -0.1355E+06  0  0.9659E+05  0  0.9568E+05  0  0.2274E+05  0   5042.    
   ( 21,  1, 89)  ( 19,  1, 89)  ( 19,  1, 89)  ( 19,  1, 89)  ( 17,  1, 87)
  0  -2836.      0  -2305.      0  -698.8      1  -577.0    
   ( 22,  1, 87)  ( 22,  1, 87)  ( 22,  1, 87)  ( 22,  1, 87)


 FLOW MODEL IS TRANSIENT
 FLOW MODEL CONTAINS CONSTANT-HEAD CELLS


 MAXIMUM STEPSIZE DURING WHICH ANY PARTICLE CANNOT MOVE MORE THAN ONE CELL
 =  13.23    (WHEN MIN. R.F.=1)  AT K=  17, I=   1, J=  90

 MAXIMUM STEPSIZE WHICH MEETS STABILITY CRITERION OF THE ADVECTION TERM
 (FOR PURE FINITE-DIFFERENCE OPTION, MIXELM=0) 
 =  8.007    (WHEN MIN. R.F.=1)  AT K=  16, I=   1, J=  90


 TOTAL NUMBER OF POINT SOURCES/SINKS PRESENT IN THE FLOW MODEL =    30

 MAXIMUM STEPSIZE WHICH MEETS STABILITY CRITERION OF THE SINK & SOURCE TERM
 =  12.20    (WHEN MIN. R.F.=1)  AT K=  17, I=   1, J=  91

 MAXIMUM STEPSIZE WHICH MEETS STABILITY CRITERION OF THE DISPERSION TERM
 =  4.372    (WHEN MIN. R.F.=1)  AT K=  17, I=   1, J=  90
     1 CALLS TO GCG PACKAGE FOR TRANSPORT TIME STEP 218 IN FLOW TIME STEP   1 STRESS PERIOD   1
     7 TOTAL ITERATIONS
     1 CALLS TO GCG PACKAGE FOR TRANSPORT TIME STEP 218 IN FLOW TIME STEP   1 STRESS PERIOD   1
     8 TOTAL ITERATIONS
 
 SOLVING FOR HEAD 


     2 CALLS TO PCG ROUTINE FOR TIME STEP   1 IN STRESS PERIOD    1
     8 TOTAL ITERATIONS

 MAXIMUM HEAD CHANGE FOR EACH ITERATION (1 INDICATES THE FIRST INNER ITERATION):

    HEAD CHANGE    HEAD CHANGE    HEAD CHANGE    HEAD CHANGE    HEAD CHANGE 
   LAYER,ROW,COL  LAYER,ROW,COL  LAYER,ROW,COL  LAYER,ROW,COL  LAYER,ROW,COL
 ---------------------------------------------------------------------------
  1  0.1338E-01  0 -0.3672E-02  0 -0.3512E-02  0 -0.7496E-02  0  0.1006E-01
   ( 15,  1, 86)  ( 17,  1, 89)  (  7,  1, 12)  ( 11,  1, 68)  ( 11,  1, 68)
  0 -0.1629E-02  0  0.9749E-03  1 -0.8603E-03
   ( 11,  1, 68)  ( 11,  1, 62)  ( 11,  1, 61)

 MAXIMUM RESIDUAL FOR EACH ITERATION (1 INDICATES THE FIRST INNER ITERATION):

    RESIDUAL       RESIDUAL       RESIDUAL       RESIDUAL       RESIDUAL    
   LAYER,ROW,COL  LAYER,ROW,COL  LAYER,ROW,COL  LAYER,ROW,COL  LAYER,ROW,COL
 ---------------------------------------------------------------------------
  1  0.1351E+06  0 -0.9505E+05  0 -0.8687E+05  0 -0.1924E+05  0  -5082.    
   ( 21,  1, 89)  ( 19,  1, 89)  ( 19,  1, 89)  ( 19,  1, 89)  ( 17,  1, 87)
  0   2864.      0   2561.      1   2046.    
   ( 22,  1, 87)  ( 22,  1, 87)  ( 22,  1, 87)


 FLOW MODEL IS TRANSIENT
 FLOW MODEL CONTAINS CONSTANT-HEAD CELLS


 MAXIMUM STEPSIZE DURING WHICH ANY PARTICLE CANNOT MOVE MORE THAN ONE CELL
 =  12.83    (WHEN MIN. R.F.=1)  AT K=  17, I=   1, J=  90

 MAXIMUM STEPSIZE WHICH MEETS STABILITY CRITERION OF THE ADVECTION TERM
 (FOR PURE FINITE-DIFFERENCE OPTION, MIXELM=0) 
 =  8.026    (WHEN MIN. R.F.=1)  AT K=  16, I=   1, J=  90


 TOTAL NUMBER OF POINT SOURCES/SINKS PRESENT IN THE FLOW MODEL =    30

 MAXIMUM STEPSIZE WHICH MEETS STABILITY CRITERION OF THE SINK & SOURCE TERM
 =  12.20    (WHEN MIN. R.F.=1)  AT K=  17, I=   1, J=  91

 MAXIMUM STEPSIZE WHICH MEETS STABILITY CRITERION OF THE DISPERSION TERM
 =  4.021    (WHEN MIN. R.F.=1)  AT K=  17, I=   1, J=  90
     1 CALLS TO GCG PACKAGE FOR TRANSPORT TIME STEP 219 IN FLOW TIME STEP   1 STRESS PERIOD   1
     8 TOTAL ITERATIONS
     1 CALLS TO GCG PACKAGE FOR TRANSPORT TIME STEP 219 IN FLOW TIME STEP   1 STRESS PERIOD   1
     9 TOTAL ITERATIONS
 
 SOLVING FOR HEAD 


     2 CALLS TO PCG ROUTINE FOR TIME STEP   1 IN STRESS PERIOD    1
     9 TOTAL ITERATIONS

 MAXIMUM HEAD CHANGE FOR EACH ITERATION (1 INDICATES THE FIRST INNER ITERATION):

    HEAD CHANGE    HEAD CHANGE    HEAD CHANGE    HEAD CHANGE    HEAD CHANGE 
   LAYER,ROW,COL  LAYER,ROW,COL  LAYER,ROW,COL  LAYER,ROW,COL  LAYER,ROW,COL
 ---------------------------------------------------------------------------
  1 -0.1374E-01  0 -0.8844E-02  0  0.5420E-02  0  0.1129E-01  0 -0.6821E-02
   ( 15,  1, 86)  ( 11,  1, 61)  (  8,  1, 12)  ( 11,  1, 61)  (  9,  1, 51)
  0  0.5076E-02  0  0.1543E-02  0  0.6594E-03  1  0.7149E-03
   ( 11,  1, 69)  ( 11,  1, 60)  ( 11,  1, 64)  ( 11,  1, 56)

 MAXIMUM RESIDUAL FOR EACH ITERATION (1 INDICATES THE FIRST INNER ITERATION):

    RESIDUAL       RESIDUAL       RESIDUAL       RESIDUAL       RESIDUAL    
   LAYER,ROW,COL  LAYER,ROW,COL  LAYER,ROW,COL  LAYER,ROW,COL  LAYER,ROW,COL
 ---------------------------------------------------------------------------
  1 -0.1357E+06  0  0.9562E+05  0  0.9514E+05  0  0.7615E+05  0   6564.    
   ( 21,  1, 89)  ( 19,  1, 89)  ( 19,  1, 89)  ( 19,  1, 89)  ( 17,  1, 87)
  0  -3138.      0  -2586.      0  -1413.      1  -1259.    
   ( 17,  1, 88)  ( 22,  1, 87)  ( 22,  1, 87)  ( 22,  1, 87)


 FLOW MODEL IS TRANSIENT
 FLOW MODEL CONTAINS CONSTANT-HEAD CELLS


 MAXIMUM STEPSIZE DURING WHICH ANY PARTICLE CANNOT MOVE MORE THAN ONE CELL
 =  13.15    (WHEN MIN. R.F.=1)  AT K=  17, I=   1, J=  90

 MAXIMUM STEPSIZE WHICH MEETS STABILITY CRITERION OF THE ADVECTION TERM
 (FOR PURE FINITE-DIFFERENCE OPTION, MIXELM=0) 
 =  7.974    (WHEN MIN. R.F.=1)  AT K=  16, I=   1, J=  90


 TOTAL NUMBER OF POINT SOURCES/SINKS PRESENT IN THE FLOW MODEL =    30

 MAXIMUM STEPSIZE WHICH MEETS STABILITY CRITERION OF THE SINK & SOURCE TERM
 =  12.08    (WHEN MIN. R.F.=1)  AT K=  17, I=   1, J=  91

 MAXIMUM STEPSIZE WHICH MEETS STABILITY CRITERION OF THE DISPERSION TERM
 =  4.336    (WHEN MIN. R.F.=1)  AT K=  17, I=   1, J=  90
     1 CALLS TO GCG PACKAGE FOR TRANSPORT TIME STEP 220 IN FLOW TIME STEP   1 STRESS PERIOD   1
     8 TOTAL ITERATIONS
  MAXIMUM CONCENTRATION CHANGES FOR EACH ITERATION:
  MAX. CHANGE LAYER,ROW,COL MAX. CHANGE LAYER,ROW,COL MAX. CHANGE LAYER,ROW,COL MAX. CHANGE LAYER,ROW,COL MAX. CHANGE LAYER,ROW,COL
 ------------------------------------------------------------------------------------------------------------------------------------
   0.4889E-01 ( 20,  1, 87)  0.3279E-02 ( 19,  1, 87)  0.2162E-02 ( 18,  1, 87)  0.2135E-03 ( 16,  1, 88)  0.1435E-03 ( 16,  1, 89)
   0.2761E-04 ( 16,  1, 90)  0.3366E-05 ( 21,  1, 78)  0.8982E-06 ( 15,  1, 89)
     1 CALLS TO GCG PACKAGE FOR TRANSPORT TIME STEP 220 IN FLOW TIME STEP   1 STRESS PERIOD   1
     8 TOTAL ITERATIONS
  MAXIMUM CONCENTRATION CHANGES FOR EACH ITERATION:
  MAX. CHANGE LAYER,ROW,COL MAX. CHANGE LAYER,ROW,COL MAX. CHANGE LAYER,ROW,COL MAX. CHANGE LAYER,ROW,COL MAX. CHANGE LAYER,ROW,COL
 ------------------------------------------------------------------------------------------------------------------------------------
   0.5779E-01 ( 19,  1, 88)  0.6212E-02 ( 19,  1, 87)  0.2472E-02 ( 18,  1, 87)  0.7462E-03 ( 18,  1, 87)  0.1356E-03 ( 17,  1, 89)
   0.3992E-04 ( 17,  1, 90)  0.7006E-05 ( 17,  1, 90)  0.7966E-06 ( 18,  1, 90)



 >>>>>>>>>>>>>>>>>>>>>>>>>>>>>>>>>>>>>>>>>>>>>>>>>>>>>>>FOR COMPONENT NO. 01<<<<<<<<<<<<<<<<<<<<<<<<<<<<<<<<<<<<<<<<<<<<<<<<<<<<<<<


                                            -------------------------------------------
                                                      TRANSPORT STEP NO.  220
                                            -------------------------------------------

 TOTAL ELAPSED TIME SINCE BEGINNING OF SIMULATION =   11000.00    D   
 .....................................................................

                     CUMMULATIVE MASS BUDGETS AT END OF TRANSPORT STEP  220, TIME STEP    1, STRESS PERIOD    1
                     ------------------------------------------------------------------------------------------

                                                             IN                           OUT
                                                      ----------------             ----------------
                               CONSTANT CONCENTRATION:    0.000000                    0.000000    
                                        CONSTANT HEAD:   0.4355812E+09              -0.4354035E+09
                                                WELLS:    0.000000                    0.000000    
                                             RECHARGE:    0.000000                    0.000000    
                               1ST/0TH ORDER REACTION:    0.000000                    0.000000    
                                MASS STORAGE (SOLUTE):   0.6100129E+08              -0.6117911E+08
                            ---------------------------------------------------------------------------
                                              [TOTAL]:   0.4965830E+09 KG           -0.4965830E+09 KG  

                                                          NET (IN - OUT):   -71.52233    
                                                   DISCREPANCY (PERCENT):  -0.1440290E-04



 >>>>>>>>>>>>>>>>>>>>>>>>>>>>>>>>>>>>>>>>>>>>>>>>>>>>>>>FOR COMPONENT NO. 02<<<<<<<<<<<<<<<<<<<<<<<<<<<<<<<<<<<<<<<<<<<<<<<<<<<<<<<


                                            -------------------------------------------
                                                      TRANSPORT STEP NO.  220
                                            -------------------------------------------

 TOTAL ELAPSED TIME SINCE BEGINNING OF SIMULATION =   11000.00    D   
 .....................................................................

                     CUMMULATIVE MASS BUDGETS AT END OF TRANSPORT STEP  220, TIME STEP    1, STRESS PERIOD    1
                     ------------------------------------------------------------------------------------------

                                                             IN                           OUT
                                                      ----------------             ----------------
                               CONSTANT CONCENTRATION:    0.000000                    0.000000    
                                        CONSTANT HEAD:    0.000000                  -0.3667008E+11
                                                WELLS:    0.000000                    0.000000    
                                             RECHARGE:    0.000000                    0.000000    
                               1ST/0TH ORDER REACTION:   0.1820500E+12                0.000000    
                                MASS STORAGE (SOLUTE):   0.8190144E+10              -0.1535701E+12
                            ---------------------------------------------------------------------------
                                              [TOTAL]:   0.1902403E+12 KG           -0.1902403E+12 KG  

                                                          NET (IN - OUT):   -3831.792    
                                                   DISCREPANCY (PERCENT):  -0.2014185E-05
 
 SOLVING FOR HEAD 


     2 CALLS TO PCG ROUTINE FOR TIME STEP   1 IN STRESS PERIOD    1
     8 TOTAL ITERATIONS

 MAXIMUM HEAD CHANGE FOR EACH ITERATION (1 INDICATES THE FIRST INNER ITERATION):

    HEAD CHANGE    HEAD CHANGE    HEAD CHANGE    HEAD CHANGE    HEAD CHANGE 
   LAYER,ROW,COL  LAYER,ROW,COL  LAYER,ROW,COL  LAYER,ROW,COL  LAYER,ROW,COL
 ---------------------------------------------------------------------------
  1  0.1374E-01  0 -0.4166E-02  0 -0.3588E-02  0 -0.1070E-01  0  0.1259E-01
   ( 15,  1, 86)  ( 17,  1, 89)  (  8,  1, 12)  ( 11,  1, 56)  ( 11,  1, 56)
  0 -0.2500E-02  0 -0.9908E-03  1 -0.8824E-03
   ( 11,  1, 56)  ( 11,  1, 70)  ( 11,  1, 49)

 MAXIMUM RESIDUAL FOR EACH ITERATION (1 INDICATES THE FIRST INNER ITERATION):

    RESIDUAL       RESIDUAL       RESIDUAL       RESIDUAL       RESIDUAL    
   LAYER,ROW,COL  LAYER,ROW,COL  LAYER,ROW,COL  LAYER,ROW,COL  LAYER,ROW,COL
 ---------------------------------------------------------------------------
  1  0.1338E+06  0 -0.9541E+05  0 -0.9456E+05  0 -0.1994E+05  0   4991.    
   ( 21,  1, 89)  ( 19,  1, 89)  ( 19,  1, 89)  ( 19,  1, 89)  ( 17,  1, 88)
  0   2763.      0   2300.      1   1974.    
   ( 22,  1, 87)  ( 22,  1, 87)  ( 22,  1, 87)


 FLOW MODEL IS TRANSIENT
 FLOW MODEL CONTAINS CONSTANT-HEAD CELLS


 MAXIMUM STEPSIZE DURING WHICH ANY PARTICLE CANNOT MOVE MORE THAN ONE CELL
 =  12.84    (WHEN MIN. R.F.=1)  AT K=  17, I=   1, J=  90

 MAXIMUM STEPSIZE WHICH MEETS STABILITY CRITERION OF THE ADVECTION TERM
 (FOR PURE FINITE-DIFFERENCE OPTION, MIXELM=0) 
 =  8.029    (WHEN MIN. R.F.=1)  AT K=  16, I=   1, J=  90


 TOTAL NUMBER OF POINT SOURCES/SINKS PRESENT IN THE FLOW MODEL =    30

 MAXIMUM STEPSIZE WHICH MEETS STABILITY CRITERION OF THE SINK & SOURCE TERM
 =  12.18    (WHEN MIN. R.F.=1)  AT K=  17, I=   1, J=  91

 MAXIMUM STEPSIZE WHICH MEETS STABILITY CRITERION OF THE DISPERSION TERM
 =  4.021    (WHEN MIN. R.F.=1)  AT K=  17, I=   1, J=  90
     1 CALLS TO GCG PACKAGE FOR TRANSPORT TIME STEP 221 IN FLOW TIME STEP   1 STRESS PERIOD   1
     8 TOTAL ITERATIONS
     1 CALLS TO GCG PACKAGE FOR TRANSPORT TIME STEP 221 IN FLOW TIME STEP   1 STRESS PERIOD   1
     9 TOTAL ITERATIONS
 
 SOLVING FOR HEAD 


     2 CALLS TO PCG ROUTINE FOR TIME STEP   1 IN STRESS PERIOD    1
     9 TOTAL ITERATIONS

 MAXIMUM HEAD CHANGE FOR EACH ITERATION (1 INDICATES THE FIRST INNER ITERATION):

    HEAD CHANGE    HEAD CHANGE    HEAD CHANGE    HEAD CHANGE    HEAD CHANGE 
   LAYER,ROW,COL  LAYER,ROW,COL  LAYER,ROW,COL  LAYER,ROW,COL  LAYER,ROW,COL
 ---------------------------------------------------------------------------
  1 -0.1371E-01  0 -0.6522E-02  0  0.4598E-02  0  0.1847E-01  0 -0.1645E-01
   ( 15,  1, 86)  ( 11,  1, 49)  (  8,  1, 12)  ( 11,  1, 49)  ( 11,  1, 49)
  0  0.2727E-02  0  0.1229E-02  0  0.4008E-03  1  0.4220E-03
   ( 11,  1, 55)  ( 11,  1, 63)  ( 11,  1, 63)  ( 11,  1, 55)

 MAXIMUM RESIDUAL FOR EACH ITERATION (1 INDICATES THE FIRST INNER ITERATION):

    RESIDUAL       RESIDUAL       RESIDUAL       RESIDUAL       RESIDUAL    
   LAYER,ROW,COL  LAYER,ROW,COL  LAYER,ROW,COL  LAYER,ROW,COL  LAYER,ROW,COL
 ---------------------------------------------------------------------------
  1 -0.1326E+06  0  0.9320E+05  0  0.9258E+05  0  0.4999E+05  0   5573.    
   ( 21,  1, 89)  ( 19,  1, 89)  ( 19,  1, 89)  ( 19,  1, 89)  ( 17,  1, 87)
  0  -2758.      0  -2590.      0  -1344.      1  -1210.    
   ( 22,  1, 87)  ( 22,  1, 87)  ( 22,  1, 87)  ( 22,  1, 87)


 FLOW MODEL IS TRANSIENT
 FLOW MODEL CONTAINS CONSTANT-HEAD CELLS


 MAXIMUM STEPSIZE DURING WHICH ANY PARTICLE CANNOT MOVE MORE THAN ONE CELL
 =  13.19    (WHEN MIN. R.F.=1)  AT K=  17, I=   1, J=  90

 MAXIMUM STEPSIZE WHICH MEETS STABILITY CRITERION OF THE ADVECTION TERM
 (FOR PURE FINITE-DIFFERENCE OPTION, MIXELM=0) 
 =  7.988    (WHEN MIN. R.F.=1)  AT K=  16, I=   1, J=  90


 TOTAL NUMBER OF POINT SOURCES/SINKS PRESENT IN THE FLOW MODEL =    30

 MAXIMUM STEPSIZE WHICH MEETS STABILITY CRITERION OF THE SINK & SOURCE TERM
 =  12.12    (WHEN MIN. R.F.=1)  AT K=  17, I=   1, J=  91

 MAXIMUM STEPSIZE WHICH MEETS STABILITY CRITERION OF THE DISPERSION TERM
 =  4.362    (WHEN MIN. R.F.=1)  AT K=  17, I=   1, J=  90
     1 CALLS TO GCG PACKAGE FOR TRANSPORT TIME STEP 222 IN FLOW TIME STEP   1 STRESS PERIOD   1
    10 TOTAL ITERATIONS
     1 CALLS TO GCG PACKAGE FOR TRANSPORT TIME STEP 222 IN FLOW TIME STEP   1 STRESS PERIOD   1
     8 TOTAL ITERATIONS
 
 SOLVING FOR HEAD 


     2 CALLS TO PCG ROUTINE FOR TIME STEP   1 IN STRESS PERIOD    1
     8 TOTAL ITERATIONS

 MAXIMUM HEAD CHANGE FOR EACH ITERATION (1 INDICATES THE FIRST INNER ITERATION):

    HEAD CHANGE    HEAD CHANGE    HEAD CHANGE    HEAD CHANGE    HEAD CHANGE 
   LAYER,ROW,COL  LAYER,ROW,COL  LAYER,ROW,COL  LAYER,ROW,COL  LAYER,ROW,COL
 ---------------------------------------------------------------------------
  1  0.1361E-01  0 -0.4169E-02  0 -0.3298E-02  0 -0.8573E-02  0  0.8761E-02
   ( 15,  1, 86)  ( 17,  1, 89)  (  8,  1, 12)  (  8,  1, 45)  (  7,  1, 45)
  0 -0.1466E-02  0 -0.9906E-03  1  0.6782E-03
   ( 11,  1, 68)  ( 11,  1, 53)  ( 11,  1, 53)

 MAXIMUM RESIDUAL FOR EACH ITERATION (1 INDICATES THE FIRST INNER ITERATION):

    RESIDUAL       RESIDUAL       RESIDUAL       RESIDUAL       RESIDUAL    
   LAYER,ROW,COL  LAYER,ROW,COL  LAYER,ROW,COL  LAYER,ROW,COL  LAYER,ROW,COL
 ---------------------------------------------------------------------------
  1  0.1347E+06  0 -0.9563E+05  0 -0.9471E+05  0 -0.3075E+05  0   5784.    
   ( 21,  1, 89)  ( 19,  1, 89)  ( 19,  1, 89)  ( 19,  1, 89)  ( 17,  1, 88)
  0   2774.      0   2411.      1   2040.    
   ( 22,  1, 87)  ( 22,  1, 87)  ( 22,  1, 87)


 FLOW MODEL IS TRANSIENT
 FLOW MODEL CONTAINS CONSTANT-HEAD CELLS


 MAXIMUM STEPSIZE DURING WHICH ANY PARTICLE CANNOT MOVE MORE THAN ONE CELL
 =  12.84    (WHEN MIN. R.F.=1)  AT K=  17, I=   1, J=  90

 MAXIMUM STEPSIZE WHICH MEETS STABILITY CRITERION OF THE ADVECTION TERM
 (FOR PURE FINITE-DIFFERENCE OPTION, MIXELM=0) 
 =  8.031    (WHEN MIN. R.F.=1)  AT K=  16, I=   1, J=  90


 TOTAL NUMBER OF POINT SOURCES/SINKS PRESENT IN THE FLOW MODEL =    30

 MAXIMUM STEPSIZE WHICH MEETS STABILITY CRITERION OF THE SINK & SOURCE TERM
 =  12.20    (WHEN MIN. R.F.=1)  AT K=  17, I=   1, J=  91

 MAXIMUM STEPSIZE WHICH MEETS STABILITY CRITERION OF THE DISPERSION TERM
 =  4.022    (WHEN MIN. R.F.=1)  AT K=  17, I=   1, J=  90
     1 CALLS TO GCG PACKAGE FOR TRANSPORT TIME STEP 223 IN FLOW TIME STEP   1 STRESS PERIOD   1
     8 TOTAL ITERATIONS
     1 CALLS TO GCG PACKAGE FOR TRANSPORT TIME STEP 223 IN FLOW TIME STEP   1 STRESS PERIOD   1
     9 TOTAL ITERATIONS
 
 SOLVING FOR HEAD 


     2 CALLS TO PCG ROUTINE FOR TIME STEP   1 IN STRESS PERIOD    1
     9 TOTAL ITERATIONS

 MAXIMUM HEAD CHANGE FOR EACH ITERATION (1 INDICATES THE FIRST INNER ITERATION):

    HEAD CHANGE    HEAD CHANGE    HEAD CHANGE    HEAD CHANGE    HEAD CHANGE 
   LAYER,ROW,COL  LAYER,ROW,COL  LAYER,ROW,COL  LAYER,ROW,COL  LAYER,ROW,COL
 ---------------------------------------------------------------------------
  1 -0.1375E-01  0  0.7452E-02  0  0.4891E-02  0 -0.1492E-01  0  0.1116E-01
   ( 15,  1, 86)  ( 11,  1, 53)  (  8,  1, 12)  ( 11,  1, 52)  ( 11,  1, 52)
  0  0.2727E-02  0 -0.1009E-02  0  0.8441E-03  1 -0.7066E-03
   ( 11,  1, 69)  (  8,  1, 43)  ( 11,  1, 62)  ( 11,  1, 62)

 MAXIMUM RESIDUAL FOR EACH ITERATION (1 INDICATES THE FIRST INNER ITERATION):

    RESIDUAL       RESIDUAL       RESIDUAL       RESIDUAL       RESIDUAL    
   LAYER,ROW,COL  LAYER,ROW,COL  LAYER,ROW,COL  LAYER,ROW,COL  LAYER,ROW,COL
 ---------------------------------------------------------------------------
  1 -0.1344E+06  0  0.9478E+05  0  0.9420E+05  0  0.6660E+05  0   5887.    
   ( 21,  1, 89)  ( 19,  1, 89)  ( 19,  1, 89)  ( 19,  1, 89)  ( 17,  1, 87)
  0  -2882.      0  -2580.      0  -1106.      1  -983.7    
   ( 17,  1, 88)  ( 22,  1, 87)  ( 22,  1, 87)  ( 22,  1, 87)


 FLOW MODEL IS TRANSIENT
 FLOW MODEL CONTAINS CONSTANT-HEAD CELLS


 MAXIMUM STEPSIZE DURING WHICH ANY PARTICLE CANNOT MOVE MORE THAN ONE CELL
 =  13.18    (WHEN MIN. R.F.=1)  AT K=  17, I=   1, J=  90

 MAXIMUM STEPSIZE WHICH MEETS STABILITY CRITERION OF THE ADVECTION TERM
 (FOR PURE FINITE-DIFFERENCE OPTION, MIXELM=0) 
 =  7.984    (WHEN MIN. R.F.=1)  AT K=  16, I=   1, J=  90


 TOTAL NUMBER OF POINT SOURCES/SINKS PRESENT IN THE FLOW MODEL =    30

 MAXIMUM STEPSIZE WHICH MEETS STABILITY CRITERION OF THE SINK & SOURCE TERM
 =  12.12    (WHEN MIN. R.F.=1)  AT K=  17, I=   1, J=  91

 MAXIMUM STEPSIZE WHICH MEETS STABILITY CRITERION OF THE DISPERSION TERM
 =  4.361    (WHEN MIN. R.F.=1)  AT K=  17, I=   1, J=  90
     1 CALLS TO GCG PACKAGE FOR TRANSPORT TIME STEP 224 IN FLOW TIME STEP   1 STRESS PERIOD   1
    10 TOTAL ITERATIONS
     1 CALLS TO GCG PACKAGE FOR TRANSPORT TIME STEP 224 IN FLOW TIME STEP   1 STRESS PERIOD   1
     8 TOTAL ITERATIONS
 
 SOLVING FOR HEAD 


     2 CALLS TO PCG ROUTINE FOR TIME STEP   1 IN STRESS PERIOD    1
     9 TOTAL ITERATIONS

 MAXIMUM HEAD CHANGE FOR EACH ITERATION (1 INDICATES THE FIRST INNER ITERATION):

    HEAD CHANGE    HEAD CHANGE    HEAD CHANGE    HEAD CHANGE    HEAD CHANGE 
   LAYER,ROW,COL  LAYER,ROW,COL  LAYER,ROW,COL  LAYER,ROW,COL  LAYER,ROW,COL
 ---------------------------------------------------------------------------
  1  0.1357E-01  0 -0.4151E-02  0 -0.3188E-02  0  0.9445E-02  0 -0.9652E-02
   ( 15,  1, 86)  ( 17,  1, 89)  (  8,  1, 12)  ( 11,  1, 61)  ( 11,  1, 61)
  0  0.1733E-02  0 -0.1060E-02  0 -0.6887E-03  1  0.6238E-03
   (  7,  1, 46)  ( 11,  1, 70)  ( 11,  1, 57)  ( 11,  1, 56)

 MAXIMUM RESIDUAL FOR EACH ITERATION (1 INDICATES THE FIRST INNER ITERATION):

    RESIDUAL       RESIDUAL       RESIDUAL       RESIDUAL       RESIDUAL    
   LAYER,ROW,COL  LAYER,ROW,COL  LAYER,ROW,COL  LAYER,ROW,COL  LAYER,ROW,COL
 ---------------------------------------------------------------------------
  1  0.1351E+06  0 -0.9571E+05  0 -0.9476E+05  0 -0.2030E+05  0   5136.    
   ( 21,  1, 89)  ( 19,  1, 89)  ( 19,  1, 89)  ( 19,  1, 89)  ( 17,  1, 88)
  0   2757.      0   2473.      0   856.2      1   743.0    
   ( 22,  1, 87)  ( 22,  1, 87)  ( 22,  1, 87)  ( 22,  1, 87)


 FLOW MODEL IS TRANSIENT
 FLOW MODEL CONTAINS CONSTANT-HEAD CELLS


 MAXIMUM STEPSIZE DURING WHICH ANY PARTICLE CANNOT MOVE MORE THAN ONE CELL
 =  12.84    (WHEN MIN. R.F.=1)  AT K=  17, I=   1, J=  90

 MAXIMUM STEPSIZE WHICH MEETS STABILITY CRITERION OF THE ADVECTION TERM
 (FOR PURE FINITE-DIFFERENCE OPTION, MIXELM=0) 
 =  8.031    (WHEN MIN. R.F.=1)  AT K=  16, I=   1, J=  90


 TOTAL NUMBER OF POINT SOURCES/SINKS PRESENT IN THE FLOW MODEL =    30

 MAXIMUM STEPSIZE WHICH MEETS STABILITY CRITERION OF THE SINK & SOURCE TERM
 =  12.19    (WHEN MIN. R.F.=1)  AT K=  17, I=   1, J=  91

 MAXIMUM STEPSIZE WHICH MEETS STABILITY CRITERION OF THE DISPERSION TERM
 =  4.022    (WHEN MIN. R.F.=1)  AT K=  17, I=   1, J=  90
     1 CALLS TO GCG PACKAGE FOR TRANSPORT TIME STEP 225 IN FLOW TIME STEP   1 STRESS PERIOD   1
     8 TOTAL ITERATIONS
  MAXIMUM CONCENTRATION CHANGES FOR EACH ITERATION:
  MAX. CHANGE LAYER,ROW,COL MAX. CHANGE LAYER,ROW,COL MAX. CHANGE LAYER,ROW,COL MAX. CHANGE LAYER,ROW,COL MAX. CHANGE LAYER,ROW,COL
 ------------------------------------------------------------------------------------------------------------------------------------
   0.5270E-01 ( 20,  1, 87)  0.4311E-02 ( 19,  1, 89)  0.2097E-02 ( 17,  1, 86)  0.4747E-03 ( 20,  1, 89)  0.9230E-04 ( 16,  1, 89)
   0.2047E-04 ( 20,  1, 89)  0.2097E-04 ( 16,  1, 90)  0.7355E-06 ( 17,  1, 90)
     1 CALLS TO GCG PACKAGE FOR TRANSPORT TIME STEP 225 IN FLOW TIME STEP   1 STRESS PERIOD   1
     9 TOTAL ITERATIONS
  MAXIMUM CONCENTRATION CHANGES FOR EACH ITERATION:
  MAX. CHANGE LAYER,ROW,COL MAX. CHANGE LAYER,ROW,COL MAX. CHANGE LAYER,ROW,COL MAX. CHANGE LAYER,ROW,COL MAX. CHANGE LAYER,ROW,COL
 ------------------------------------------------------------------------------------------------------------------------------------
   0.6271E-01 ( 20,  1, 87)  0.5019E-02 ( 19,  1, 86)  0.2425E-02 ( 19,  1, 89)  0.1161E-02 ( 19,  1, 89)  0.4861E-03 ( 16,  1, 89)
   0.3962E-03 ( 16,  1, 89)  0.1623E-04 ( 17,  1, 90)  0.1028E-05 ( 17,  1, 90)  0.1680E-06 ( 17,  1, 90)
 
 SOLVING FOR HEAD 


     2 CALLS TO PCG ROUTINE FOR TIME STEP   1 IN STRESS PERIOD    1
     8 TOTAL ITERATIONS

 MAXIMUM HEAD CHANGE FOR EACH ITERATION (1 INDICATES THE FIRST INNER ITERATION):

    HEAD CHANGE    HEAD CHANGE    HEAD CHANGE    HEAD CHANGE    HEAD CHANGE 
   LAYER,ROW,COL  LAYER,ROW,COL  LAYER,ROW,COL  LAYER,ROW,COL  LAYER,ROW,COL
 ---------------------------------------------------------------------------
  1 -0.1339E-01  0  0.3786E-02  0  0.2563E-02  0 -0.1143E-01  0  0.1038E-01
   ( 15,  1, 86)  ( 17,  1, 89)  (  8,  1, 12)  ( 11,  1, 55)  ( 11,  1, 55)
  0 -0.1778E-02  0 -0.9926E-03  1  0.8144E-03
   ( 11,  1, 49)  ( 11,  1, 56)  ( 11,  1, 56)

 MAXIMUM RESIDUAL FOR EACH ITERATION (1 INDICATES THE FIRST INNER ITERATION):

    RESIDUAL       RESIDUAL       RESIDUAL       RESIDUAL       RESIDUAL    
   LAYER,ROW,COL  LAYER,ROW,COL  LAYER,ROW,COL  LAYER,ROW,COL  LAYER,ROW,COL
 ---------------------------------------------------------------------------
  1 -0.1323E+06  0  0.9325E+05  0  0.9205E+05  0  0.3325E+05  0   6002.    
   ( 21,  1, 89)  ( 19,  1, 89)  ( 19,  1, 89)  ( 19,  1, 89)  ( 17,  1, 87)
  0  -2796.      0  -2549.      1  -1923.    
   ( 22,  1, 87)  ( 22,  1, 87)  ( 22,  1, 87)


 FLOW MODEL IS TRANSIENT
 FLOW MODEL CONTAINS CONSTANT-HEAD CELLS


 MAXIMUM STEPSIZE DURING WHICH ANY PARTICLE CANNOT MOVE MORE THAN ONE CELL
 =  13.23    (WHEN MIN. R.F.=1)  AT K=  17, I=   1, J=  90

 MAXIMUM STEPSIZE WHICH MEETS STABILITY CRITERION OF THE ADVECTION TERM
 (FOR PURE FINITE-DIFFERENCE OPTION, MIXELM=0) 
 =  8.007    (WHEN MIN. R.F.=1)  AT K=  16, I=   1, J=  90


 TOTAL NUMBER OF POINT SOURCES/SINKS PRESENT IN THE FLOW MODEL =    30

 MAXIMUM STEPSIZE WHICH MEETS STABILITY CRITERION OF THE SINK & SOURCE TERM
 =  12.18    (WHEN MIN. R.F.=1)  AT K=  17, I=   1, J=  91

 MAXIMUM STEPSIZE WHICH MEETS STABILITY CRITERION OF THE DISPERSION TERM
 =  4.377    (WHEN MIN. R.F.=1)  AT K=  17, I=   1, J=  90
     1 CALLS TO GCG PACKAGE FOR TRANSPORT TIME STEP 226 IN FLOW TIME STEP   1 STRESS PERIOD   1
    10 TOTAL ITERATIONS
     1 CALLS TO GCG PACKAGE FOR TRANSPORT TIME STEP 226 IN FLOW TIME STEP   1 STRESS PERIOD   1
     8 TOTAL ITERATIONS
 
 SOLVING FOR HEAD 


     2 CALLS TO PCG ROUTINE FOR TIME STEP   1 IN STRESS PERIOD    1
     9 TOTAL ITERATIONS

 MAXIMUM HEAD CHANGE FOR EACH ITERATION (1 INDICATES THE FIRST INNER ITERATION):

    HEAD CHANGE    HEAD CHANGE    HEAD CHANGE    HEAD CHANGE    HEAD CHANGE 
   LAYER,ROW,COL  LAYER,ROW,COL  LAYER,ROW,COL  LAYER,ROW,COL  LAYER,ROW,COL
 ---------------------------------------------------------------------------
  1  0.1373E-01  0  0.8922E-02  0 -0.3451E-02  0 -0.9576E-02  0  0.6283E-02
   ( 15,  1, 86)  ( 11,  1, 56)  (  7,  1, 12)  ( 11,  1, 57)  (  8,  1, 46)
  0  0.4532E-02  0 -0.1508E-02  0 -0.7897E-03  1 -0.7730E-03
   ( 11,  1, 56)  ( 11,  1, 55)  ( 11,  1, 70)  ( 11,  1, 49)

 MAXIMUM RESIDUAL FOR EACH ITERATION (1 INDICATES THE FIRST INNER ITERATION):

    RESIDUAL       RESIDUAL       RESIDUAL       RESIDUAL       RESIDUAL    
   LAYER,ROW,COL  LAYER,ROW,COL  LAYER,ROW,COL  LAYER,ROW,COL  LAYER,ROW,COL
 ---------------------------------------------------------------------------
  1  0.1350E+06  0 -0.9486E+05  0 -0.9391E+05  0 -0.7825E+05  0  -6411.    
   ( 21,  1, 89)  ( 19,  1, 89)  ( 19,  1, 89)  ( 19,  1, 89)  ( 17,  1, 87)
  0   3180.      0   2625.      0   1567.      1   1394.    
   ( 17,  1, 88)  ( 22,  1, 87)  ( 22,  1, 87)  ( 22,  1, 87)


 FLOW MODEL IS TRANSIENT
 FLOW MODEL CONTAINS CONSTANT-HEAD CELLS


 MAXIMUM STEPSIZE DURING WHICH ANY PARTICLE CANNOT MOVE MORE THAN ONE CELL
 =  12.91    (WHEN MIN. R.F.=1)  AT K=  17, I=   1, J=  90

 MAXIMUM STEPSIZE WHICH MEETS STABILITY CRITERION OF THE ADVECTION TERM
 (FOR PURE FINITE-DIFFERENCE OPTION, MIXELM=0) 
 =  8.057    (WHEN MIN. R.F.=1)  AT K=  16, I=   1, J=  90


 TOTAL NUMBER OF POINT SOURCES/SINKS PRESENT IN THE FLOW MODEL =    30

 MAXIMUM STEPSIZE WHICH MEETS STABILITY CRITERION OF THE SINK & SOURCE TERM
 =  12.29    (WHEN MIN. R.F.=1)  AT K=  17, I=   1, J=  91

 MAXIMUM STEPSIZE WHICH MEETS STABILITY CRITERION OF THE DISPERSION TERM
 =  4.052    (WHEN MIN. R.F.=1)  AT K=  17, I=   1, J=  90
     1 CALLS TO GCG PACKAGE FOR TRANSPORT TIME STEP 227 IN FLOW TIME STEP   1 STRESS PERIOD   1
     8 TOTAL ITERATIONS
     1 CALLS TO GCG PACKAGE FOR TRANSPORT TIME STEP 227 IN FLOW TIME STEP   1 STRESS PERIOD   1
     8 TOTAL ITERATIONS
 
 SOLVING FOR HEAD 


     2 CALLS TO PCG ROUTINE FOR TIME STEP   1 IN STRESS PERIOD    1
     8 TOTAL ITERATIONS

 MAXIMUM HEAD CHANGE FOR EACH ITERATION (1 INDICATES THE FIRST INNER ITERATION):

    HEAD CHANGE    HEAD CHANGE    HEAD CHANGE    HEAD CHANGE    HEAD CHANGE 
   LAYER,ROW,COL  LAYER,ROW,COL  LAYER,ROW,COL  LAYER,ROW,COL  LAYER,ROW,COL
 ---------------------------------------------------------------------------
  1 -0.1373E-01  0  0.4172E-02  0  0.3832E-02  0  0.1218E-01  0 -0.1347E-01
   ( 15,  1, 86)  ( 17,  1, 89)  (  8,  1, 12)  ( 11,  1, 49)  ( 11,  1, 49)
  0  0.2208E-02  0  0.8728E-03  1  0.5616E-03
   ( 11,  1, 51)  ( 11,  1, 63)  ( 11,  1, 55)

 MAXIMUM RESIDUAL FOR EACH ITERATION (1 INDICATES THE FIRST INNER ITERATION):

    RESIDUAL       RESIDUAL       RESIDUAL       RESIDUAL       RESIDUAL    
   LAYER,ROW,COL  LAYER,ROW,COL  LAYER,ROW,COL  LAYER,ROW,COL  LAYER,ROW,COL
 ---------------------------------------------------------------------------
  1 -0.1379E+06  0  0.9873E+05  0  0.9788E+05  0  0.2217E+05  0  -5080.    
   ( 21,  1, 89)  ( 19,  1, 89)  ( 19,  1, 89)  ( 19,  1, 89)  ( 17,  1, 88)
  0  -2777.      0  -2429.      1  -2038.    
   ( 22,  1, 87)  ( 22,  1, 87)  ( 22,  1, 87)


 FLOW MODEL IS TRANSIENT
 FLOW MODEL CONTAINS CONSTANT-HEAD CELLS


 MAXIMUM STEPSIZE DURING WHICH ANY PARTICLE CANNOT MOVE MORE THAN ONE CELL
 =  13.23    (WHEN MIN. R.F.=1)  AT K=  17, I=   1, J=  90

 MAXIMUM STEPSIZE WHICH MEETS STABILITY CRITERION OF THE ADVECTION TERM
 (FOR PURE FINITE-DIFFERENCE OPTION, MIXELM=0) 
 =  8.004    (WHEN MIN. R.F.=1)  AT K=  16, I=   1, J=  90


 TOTAL NUMBER OF POINT SOURCES/SINKS PRESENT IN THE FLOW MODEL =    30

 MAXIMUM STEPSIZE WHICH MEETS STABILITY CRITERION OF THE SINK & SOURCE TERM
 =  12.19    (WHEN MIN. R.F.=1)  AT K=  17, I=   1, J=  91

 MAXIMUM STEPSIZE WHICH MEETS STABILITY CRITERION OF THE DISPERSION TERM
 =  4.378    (WHEN MIN. R.F.=1)  AT K=  17, I=   1, J=  90
     1 CALLS TO GCG PACKAGE FOR TRANSPORT TIME STEP 228 IN FLOW TIME STEP   1 STRESS PERIOD   1
    10 TOTAL ITERATIONS
     1 CALLS TO GCG PACKAGE FOR TRANSPORT TIME STEP 228 IN FLOW TIME STEP   1 STRESS PERIOD   1
     8 TOTAL ITERATIONS
 
 SOLVING FOR HEAD 


     2 CALLS TO PCG ROUTINE FOR TIME STEP   1 IN STRESS PERIOD    1
     9 TOTAL ITERATIONS

 MAXIMUM HEAD CHANGE FOR EACH ITERATION (1 INDICATES THE FIRST INNER ITERATION):

    HEAD CHANGE    HEAD CHANGE    HEAD CHANGE    HEAD CHANGE    HEAD CHANGE 
   LAYER,ROW,COL  LAYER,ROW,COL  LAYER,ROW,COL  LAYER,ROW,COL  LAYER,ROW,COL
 ---------------------------------------------------------------------------
  1  0.1376E-01  0 -0.5362E-02  0 -0.4250E-02  0  0.9594E-02  0 -0.7229E-02
   ( 15,  1, 86)  ( 11,  1, 64)  (  8,  1, 12)  ( 11,  1, 64)  (  9,  1, 46)
  0 -0.4102E-02  0 -0.1601E-02  0 -0.6182E-03  1  0.6295E-03
   ( 11,  1, 49)  ( 11,  1, 56)  ( 11,  1, 70)  ( 11,  1, 70)

 MAXIMUM RESIDUAL FOR EACH ITERATION (1 INDICATES THE FIRST INNER ITERATION):

    RESIDUAL       RESIDUAL       RESIDUAL       RESIDUAL       RESIDUAL    
   LAYER,ROW,COL  LAYER,ROW,COL  LAYER,ROW,COL  LAYER,ROW,COL  LAYER,ROW,COL
 ---------------------------------------------------------------------------
  1  0.1374E+06  0 -0.9808E+05  0 -0.9730E+05  0 -0.7054E+05  0  -6185.    
   ( 21,  1, 89)  ( 19,  1, 89)  ( 19,  1, 89)  ( 19,  1, 89)  ( 17,  1, 87)
  0   3047.      0   2571.      0   1030.      1   921.5    
   ( 17,  1, 88)  ( 22,  1, 87)  ( 22,  1, 87)  ( 22,  1, 87)


 FLOW MODEL IS TRANSIENT
 FLOW MODEL CONTAINS CONSTANT-HEAD CELLS


 MAXIMUM STEPSIZE DURING WHICH ANY PARTICLE CANNOT MOVE MORE THAN ONE CELL
 =  12.87    (WHEN MIN. R.F.=1)  AT K=  17, I=   1, J=  90

 MAXIMUM STEPSIZE WHICH MEETS STABILITY CRITERION OF THE ADVECTION TERM
 (FOR PURE FINITE-DIFFERENCE OPTION, MIXELM=0) 
 =  8.049    (WHEN MIN. R.F.=1)  AT K=  16, I=   1, J=  90


 TOTAL NUMBER OF POINT SOURCES/SINKS PRESENT IN THE FLOW MODEL =    30

 MAXIMUM STEPSIZE WHICH MEETS STABILITY CRITERION OF THE SINK & SOURCE TERM
 =  12.25    (WHEN MIN. R.F.=1)  AT K=  17, I=   1, J=  91

 MAXIMUM STEPSIZE WHICH MEETS STABILITY CRITERION OF THE DISPERSION TERM
 =  4.032    (WHEN MIN. R.F.=1)  AT K=  17, I=   1, J=  90
     1 CALLS TO GCG PACKAGE FOR TRANSPORT TIME STEP 229 IN FLOW TIME STEP   1 STRESS PERIOD   1
     8 TOTAL ITERATIONS
     1 CALLS TO GCG PACKAGE FOR TRANSPORT TIME STEP 229 IN FLOW TIME STEP   1 STRESS PERIOD   1
     9 TOTAL ITERATIONS
 
 SOLVING FOR HEAD 


     2 CALLS TO PCG ROUTINE FOR TIME STEP   1 IN STRESS PERIOD    1
     8 TOTAL ITERATIONS

 MAXIMUM HEAD CHANGE FOR EACH ITERATION (1 INDICATES THE FIRST INNER ITERATION):

    HEAD CHANGE    HEAD CHANGE    HEAD CHANGE    HEAD CHANGE    HEAD CHANGE 
   LAYER,ROW,COL  LAYER,ROW,COL  LAYER,ROW,COL  LAYER,ROW,COL  LAYER,ROW,COL
 ---------------------------------------------------------------------------
  1 -0.1359E-01  0  0.4095E-02  0  0.4331E-02  0  0.8149E-02  0 -0.9629E-02
   ( 15,  1, 86)  ( 17,  1, 89)  (  8,  1, 12)  ( 11,  1, 58)  ( 11,  1, 58)
  0  0.1734E-02  0 -0.6980E-03  1  0.6215E-03
   ( 11,  1, 57)  ( 11,  1, 68)  ( 11,  1, 68)

 MAXIMUM RESIDUAL FOR EACH ITERATION (1 INDICATES THE FIRST INNER ITERATION):

    RESIDUAL       RESIDUAL       RESIDUAL       RESIDUAL       RESIDUAL    
   LAYER,ROW,COL  LAYER,ROW,COL  LAYER,ROW,COL  LAYER,ROW,COL  LAYER,ROW,COL
 ---------------------------------------------------------------------------
  1 -0.1356E+06  0  0.9601E+05  0  0.9530E+05  0  0.2049E+05  0  -5114.    
   ( 21,  1, 89)  ( 19,  1, 89)  ( 19,  1, 89)  ( 19,  1, 89)  ( 17,  1, 88)
  0  -2832.      0  -2453.      1  -2096.    
   ( 22,  1, 87)  ( 22,  1, 87)  ( 22,  1, 87)


 FLOW MODEL IS TRANSIENT
 FLOW MODEL CONTAINS CONSTANT-HEAD CELLS


 MAXIMUM STEPSIZE DURING WHICH ANY PARTICLE CANNOT MOVE MORE THAN ONE CELL
 =  13.26    (WHEN MIN. R.F.=1)  AT K=  17, I=   1, J=  90

 MAXIMUM STEPSIZE WHICH MEETS STABILITY CRITERION OF THE ADVECTION TERM
 (FOR PURE FINITE-DIFFERENCE OPTION, MIXELM=0) 
 =  8.015    (WHEN MIN. R.F.=1)  AT K=  16, I=   1, J=  90


 TOTAL NUMBER OF POINT SOURCES/SINKS PRESENT IN THE FLOW MODEL =    30

 MAXIMUM STEPSIZE WHICH MEETS STABILITY CRITERION OF THE SINK & SOURCE TERM
 =  12.20    (WHEN MIN. R.F.=1)  AT K=  17, I=   1, J=  91

 MAXIMUM STEPSIZE WHICH MEETS STABILITY CRITERION OF THE DISPERSION TERM
 =  4.392    (WHEN MIN. R.F.=1)  AT K=  17, I=   1, J=  90
     1 CALLS TO GCG PACKAGE FOR TRANSPORT TIME STEP 230 IN FLOW TIME STEP   1 STRESS PERIOD   1
    10 TOTAL ITERATIONS
  MAXIMUM CONCENTRATION CHANGES FOR EACH ITERATION:
  MAX. CHANGE LAYER,ROW,COL MAX. CHANGE LAYER,ROW,COL MAX. CHANGE LAYER,ROW,COL MAX. CHANGE LAYER,ROW,COL MAX. CHANGE LAYER,ROW,COL
 ------------------------------------------------------------------------------------------------------------------------------------
   0.4874E-01 ( 20,  1, 87)  0.3360E-02 ( 19,  1, 87)  0.2216E-02 ( 18,  1, 87)  0.2188E-03 ( 16,  1, 88)  0.1464E-03 ( 17,  1, 89)
   0.2909E-04 ( 16,  1, 90)  0.1198E-05 ( 21,  1, 78)  0.4350E-05 ( 21,  1, 78)  0.1691E-05 ( 16,  1, 89)  0.1071E-06 ( 17,  1, 89)
     1 CALLS TO GCG PACKAGE FOR TRANSPORT TIME STEP 230 IN FLOW TIME STEP   1 STRESS PERIOD   1
     8 TOTAL ITERATIONS
  MAXIMUM CONCENTRATION CHANGES FOR EACH ITERATION:
  MAX. CHANGE LAYER,ROW,COL MAX. CHANGE LAYER,ROW,COL MAX. CHANGE LAYER,ROW,COL MAX. CHANGE LAYER,ROW,COL MAX. CHANGE LAYER,ROW,COL
 ------------------------------------------------------------------------------------------------------------------------------------
   0.5882E-01 ( 19,  1, 88)  0.6121E-02 ( 19,  1, 87)  0.2541E-02 ( 18,  1, 87)  0.7201E-03 ( 18,  1, 87)  0.1359E-03 ( 17,  1, 89)
   0.4148E-04 ( 17,  1, 90)  0.7386E-05 ( 17,  1, 90)  0.7985E-06 ( 18,  1, 90)



 >>>>>>>>>>>>>>>>>>>>>>>>>>>>>>>>>>>>>>>>>>>>>>>>>>>>>>>FOR COMPONENT NO. 01<<<<<<<<<<<<<<<<<<<<<<<<<<<<<<<<<<<<<<<<<<<<<<<<<<<<<<<


                                            -------------------------------------------
                                                      TRANSPORT STEP NO.  230
                                            -------------------------------------------

 TOTAL ELAPSED TIME SINCE BEGINNING OF SIMULATION =   11500.00    D   
 .....................................................................

                     CUMMULATIVE MASS BUDGETS AT END OF TRANSPORT STEP  230, TIME STEP    1, STRESS PERIOD    1
                     ------------------------------------------------------------------------------------------

                                                             IN                           OUT
                                                      ----------------             ----------------
                               CONSTANT CONCENTRATION:    0.000000                    0.000000    
                                        CONSTANT HEAD:   0.4553570E+09              -0.4551781E+09
                                                WELLS:    0.000000                    0.000000    
                                             RECHARGE:    0.000000                    0.000000    
                               1ST/0TH ORDER REACTION:    0.000000                    0.000000    
                                MASS STORAGE (SOLUTE):   0.6377486E+08              -0.6395375E+08
                            ---------------------------------------------------------------------------
                                              [TOTAL]:   0.5191323E+09 KG           -0.5191324E+09 KG  

                                                          NET (IN - OUT):   -64.34325    
                                                   DISCREPANCY (PERCENT):  -0.1239438E-04



 >>>>>>>>>>>>>>>>>>>>>>>>>>>>>>>>>>>>>>>>>>>>>>>>>>>>>>>FOR COMPONENT NO. 02<<<<<<<<<<<<<<<<<<<<<<<<<<<<<<<<<<<<<<<<<<<<<<<<<<<<<<<


                                            -------------------------------------------
                                                      TRANSPORT STEP NO.  230
                                            -------------------------------------------

 TOTAL ELAPSED TIME SINCE BEGINNING OF SIMULATION =   11500.00    D   
 .....................................................................

                     CUMMULATIVE MASS BUDGETS AT END OF TRANSPORT STEP  230, TIME STEP    1, STRESS PERIOD    1
                     ------------------------------------------------------------------------------------------

                                                             IN                           OUT
                                                      ----------------             ----------------
                               CONSTANT CONCENTRATION:    0.000000                    0.000000    
                                        CONSTANT HEAD:    0.000000                  -0.3960916E+11
                                                WELLS:    0.000000                    0.000000    
                                             RECHARGE:    0.000000                    0.000000    
                               1ST/0TH ORDER REACTION:   0.1903250E+12                0.000000    
                                MASS STORAGE (SOLUTE):   0.9034966E+10              -0.1597508E+12
                            ---------------------------------------------------------------------------
                                              [TOTAL]:   0.1993601E+12 KG           -0.1993601E+12 KG  

                                                          NET (IN - OUT):   -4721.561    
                                                   DISCREPANCY (PERCENT):  -0.2368357E-05
 
 SOLVING FOR HEAD 


     2 CALLS TO PCG ROUTINE FOR TIME STEP   1 IN STRESS PERIOD    1
     9 TOTAL ITERATIONS

 MAXIMUM HEAD CHANGE FOR EACH ITERATION (1 INDICATES THE FIRST INNER ITERATION):

    HEAD CHANGE    HEAD CHANGE    HEAD CHANGE    HEAD CHANGE    HEAD CHANGE 
   LAYER,ROW,COL  LAYER,ROW,COL  LAYER,ROW,COL  LAYER,ROW,COL  LAYER,ROW,COL
 ---------------------------------------------------------------------------
  1  0.1371E-01  0  0.5453E-02  0 -0.3559E-02  0 -0.9414E-02  0  0.7027E-02
   ( 15,  1, 86)  (  4,  1, 40)  (  7,  1, 12)  ( 11,  1, 68)  ( 11,  1, 68)
  0 -0.4046E-02  0  0.1500E-02  0 -0.8240E-03  1  0.6696E-03
   ( 11,  1, 61)  ( 11,  1, 60)  ( 11,  1, 56)  ( 11,  1, 55)

 MAXIMUM RESIDUAL FOR EACH ITERATION (1 INDICATES THE FIRST INNER ITERATION):

    RESIDUAL       RESIDUAL       RESIDUAL       RESIDUAL       RESIDUAL    
   LAYER,ROW,COL  LAYER,ROW,COL  LAYER,ROW,COL  LAYER,ROW,COL  LAYER,ROW,COL
 ---------------------------------------------------------------------------
  1  0.1375E+06  0 -0.9796E+05  0 -0.9704E+05  0 -0.7394E+05  0  -6064.    
   ( 21,  1, 89)  ( 19,  1, 89)  ( 19,  1, 89)  ( 19,  1, 89)  ( 17,  1, 87)
  0   2931.      0   2580.      0   880.3      1   778.3    
   ( 17,  1, 88)  ( 22,  1, 87)  ( 22,  1, 87)  ( 22,  1, 87)


 FLOW MODEL IS TRANSIENT
 FLOW MODEL CONTAINS CONSTANT-HEAD CELLS


 MAXIMUM STEPSIZE DURING WHICH ANY PARTICLE CANNOT MOVE MORE THAN ONE CELL
 =  12.90    (WHEN MIN. R.F.=1)  AT K=  17, I=   1, J=  90

 MAXIMUM STEPSIZE WHICH MEETS STABILITY CRITERION OF THE ADVECTION TERM
 (FOR PURE FINITE-DIFFERENCE OPTION, MIXELM=0) 
 =  8.059    (WHEN MIN. R.F.=1)  AT K=  16, I=   1, J=  90


 TOTAL NUMBER OF POINT SOURCES/SINKS PRESENT IN THE FLOW MODEL =    30

 MAXIMUM STEPSIZE WHICH MEETS STABILITY CRITERION OF THE SINK & SOURCE TERM
 =  12.27    (WHEN MIN. R.F.=1)  AT K=  17, I=   1, J=  91

 MAXIMUM STEPSIZE WHICH MEETS STABILITY CRITERION OF THE DISPERSION TERM
 =  4.043    (WHEN MIN. R.F.=1)  AT K=  17, I=   1, J=  90
     1 CALLS TO GCG PACKAGE FOR TRANSPORT TIME STEP 231 IN FLOW TIME STEP   1 STRESS PERIOD   1
     8 TOTAL ITERATIONS
     1 CALLS TO GCG PACKAGE FOR TRANSPORT TIME STEP 231 IN FLOW TIME STEP   1 STRESS PERIOD   1
     9 TOTAL ITERATIONS
 
 SOLVING FOR HEAD 


     2 CALLS TO PCG ROUTINE FOR TIME STEP   1 IN STRESS PERIOD    1
     9 TOTAL ITERATIONS

 MAXIMUM HEAD CHANGE FOR EACH ITERATION (1 INDICATES THE FIRST INNER ITERATION):

    HEAD CHANGE    HEAD CHANGE    HEAD CHANGE    HEAD CHANGE    HEAD CHANGE 
   LAYER,ROW,COL  LAYER,ROW,COL  LAYER,ROW,COL  LAYER,ROW,COL  LAYER,ROW,COL
 ---------------------------------------------------------------------------
  1 -0.1366E-01  0  0.4099E-02  0  0.4397E-02  0 -0.1293E-01  0  0.1334E-01
   ( 15,  1, 86)  ( 17,  1, 89)  (  8,  1, 12)  ( 11,  1, 55)  ( 11,  1, 55)
  0  0.2007E-02  0  0.1156E-02  0  0.5536E-03  1 -0.5530E-03
   ( 11,  1, 68)  ( 11,  1, 49)  ( 11,  1, 70)  ( 11,  1, 70)

 MAXIMUM RESIDUAL FOR EACH ITERATION (1 INDICATES THE FIRST INNER ITERATION):

    RESIDUAL       RESIDUAL       RESIDUAL       RESIDUAL       RESIDUAL    
   LAYER,ROW,COL  LAYER,ROW,COL  LAYER,ROW,COL  LAYER,ROW,COL  LAYER,ROW,COL
 ---------------------------------------------------------------------------
  1 -0.1377E+06  0  0.9767E+05  0  0.9695E+05  0  0.2223E+05  0  -5064.    
   ( 21,  1, 89)  ( 19,  1, 89)  ( 19,  1, 89)  ( 19,  1, 89)  ( 17,  1, 88)
  0  -2812.      0  -2385.      0  -690.9      1  -583.6    
   ( 22,  1, 87)  ( 22,  1, 87)  ( 22,  1, 87)  ( 22,  1, 87)


 FLOW MODEL IS TRANSIENT
 FLOW MODEL CONTAINS CONSTANT-HEAD CELLS


 MAXIMUM STEPSIZE DURING WHICH ANY PARTICLE CANNOT MOVE MORE THAN ONE CELL
 =  13.25    (WHEN MIN. R.F.=1)  AT K=  17, I=   1, J=  90

 MAXIMUM STEPSIZE WHICH MEETS STABILITY CRITERION OF THE ADVECTION TERM
 (FOR PURE FINITE-DIFFERENCE OPTION, MIXELM=0) 
 =  8.013    (WHEN MIN. R.F.=1)  AT K=  16, I=   1, J=  90


 TOTAL NUMBER OF POINT SOURCES/SINKS PRESENT IN THE FLOW MODEL =    30

 MAXIMUM STEPSIZE WHICH MEETS STABILITY CRITERION OF THE SINK & SOURCE TERM
 =  12.20    (WHEN MIN. R.F.=1)  AT K=  17, I=   1, J=  91

 MAXIMUM STEPSIZE WHICH MEETS STABILITY CRITERION OF THE DISPERSION TERM
 =  4.390    (WHEN MIN. R.F.=1)  AT K=  17, I=   1, J=  90
     1 CALLS TO GCG PACKAGE FOR TRANSPORT TIME STEP 232 IN FLOW TIME STEP   1 STRESS PERIOD   1
     9 TOTAL ITERATIONS
     1 CALLS TO GCG PACKAGE FOR TRANSPORT TIME STEP 232 IN FLOW TIME STEP   1 STRESS PERIOD   1
     8 TOTAL ITERATIONS
 
 SOLVING FOR HEAD 


     2 CALLS TO PCG ROUTINE FOR TIME STEP   1 IN STRESS PERIOD    1
     9 TOTAL ITERATIONS

 MAXIMUM HEAD CHANGE FOR EACH ITERATION (1 INDICATES THE FIRST INNER ITERATION):

    HEAD CHANGE    HEAD CHANGE    HEAD CHANGE    HEAD CHANGE    HEAD CHANGE 
   LAYER,ROW,COL  LAYER,ROW,COL  LAYER,ROW,COL  LAYER,ROW,COL  LAYER,ROW,COL
 ---------------------------------------------------------------------------
  1  0.1330E-01  0 -0.3711E-02  0 -0.7819E-02  0  0.4483E-02  0  0.9081E-02
   ( 15,  1, 86)  ( 17,  1, 89)  ( 11,  1, 49)  (  7,  1, 12)  ( 11,  1, 49)
  0  0.1966E-02  0 -0.1011E-02  0 -0.7798E-03  1  0.8000E-03
   ( 11,  1, 67)  ( 11,  1, 49)  ( 11,  1, 59)  ( 11,  1, 67)

 MAXIMUM RESIDUAL FOR EACH ITERATION (1 INDICATES THE FIRST INNER ITERATION):

    RESIDUAL       RESIDUAL       RESIDUAL       RESIDUAL       RESIDUAL    
   LAYER,ROW,COL  LAYER,ROW,COL  LAYER,ROW,COL  LAYER,ROW,COL  LAYER,ROW,COL
 ---------------------------------------------------------------------------
  1  0.1359E+06  0 -0.9583E+05  0 -0.5836E+05  0 -0.3546E+05  0  -6124.    
   ( 21,  1, 89)  ( 19,  1, 89)  ( 19,  1, 89)  ( 19,  1, 89)  ( 17,  1, 87)
  0   2889.      0   2554.      0   856.6      1   707.9    
   ( 22,  1, 87)  ( 22,  1, 87)  ( 22,  1, 87)  ( 22,  1, 87)


 FLOW MODEL IS TRANSIENT
 FLOW MODEL CONTAINS CONSTANT-HEAD CELLS


 MAXIMUM STEPSIZE DURING WHICH ANY PARTICLE CANNOT MOVE MORE THAN ONE CELL
 =  12.85    (WHEN MIN. R.F.=1)  AT K=  17, I=   1, J=  90

 MAXIMUM STEPSIZE WHICH MEETS STABILITY CRITERION OF THE ADVECTION TERM
 (FOR PURE FINITE-DIFFERENCE OPTION, MIXELM=0) 
 =  8.035    (WHEN MIN. R.F.=1)  AT K=  16, I=   1, J=  90


 TOTAL NUMBER OF POINT SOURCES/SINKS PRESENT IN THE FLOW MODEL =    30

 MAXIMUM STEPSIZE WHICH MEETS STABILITY CRITERION OF THE SINK & SOURCE TERM
 =  12.20    (WHEN MIN. R.F.=1)  AT K=  17, I=   1, J=  91

 MAXIMUM STEPSIZE WHICH MEETS STABILITY CRITERION OF THE DISPERSION TERM
 =  4.027    (WHEN MIN. R.F.=1)  AT K=  17, I=   1, J=  90
     1 CALLS TO GCG PACKAGE FOR TRANSPORT TIME STEP 233 IN FLOW TIME STEP   1 STRESS PERIOD   1
     8 TOTAL ITERATIONS
     1 CALLS TO GCG PACKAGE FOR TRANSPORT TIME STEP 233 IN FLOW TIME STEP   1 STRESS PERIOD   1
     9 TOTAL ITERATIONS
 
 SOLVING FOR HEAD 


     3 CALLS TO PCG ROUTINE FOR TIME STEP   1 IN STRESS PERIOD    1
    11 TOTAL ITERATIONS

 MAXIMUM HEAD CHANGE FOR EACH ITERATION (1 INDICATES THE FIRST INNER ITERATION):

    HEAD CHANGE    HEAD CHANGE    HEAD CHANGE    HEAD CHANGE    HEAD CHANGE 
   LAYER,ROW,COL  LAYER,ROW,COL  LAYER,ROW,COL  LAYER,ROW,COL  LAYER,ROW,COL
 ---------------------------------------------------------------------------
  1 -0.1352E-01  0  0.3761E-02  0  0.3465E-02  0  0.7323E-02  0 -0.8306E-02
   ( 15,  1, 86)  ( 17,  1, 89)  (  8,  1, 12)  ( 11,  1, 51)  ( 11,  1, 51)
  0  0.1427E-02  0  0.1195E-02  0  0.9312E-03  1 -0.1104E-02  0 -0.2551E-03
   ( 11,  1, 67)  ( 11,  1, 70)  ( 11,  1, 70)  ( 11,  1, 70)  ( 11,  1, 70)
  1  0.1881E-03
   ( 11,  1, 70)

 MAXIMUM RESIDUAL FOR EACH ITERATION (1 INDICATES THE FIRST INNER ITERATION):

    RESIDUAL       RESIDUAL       RESIDUAL       RESIDUAL       RESIDUAL    
   LAYER,ROW,COL  LAYER,ROW,COL  LAYER,ROW,COL  LAYER,ROW,COL  LAYER,ROW,COL
 ---------------------------------------------------------------------------
  1 -0.1355E+06  0  0.9547E+05  0  0.9459E+05  0  0.2154E+05  0   5033.    
   ( 21,  1, 89)  ( 19,  1, 89)  ( 19,  1, 89)  ( 19,  1, 89)  ( 17,  1, 87)
  0  -2798.      0  -2471.      0  -1014.      1  -889.8      0  -698.3    
   ( 22,  1, 87)  ( 22,  1, 87)  ( 22,  1, 87)  ( 22,  1, 87)  ( 22,  1, 87)
  1  -637.7    
   ( 22,  1, 87)


 FLOW MODEL IS TRANSIENT
 FLOW MODEL CONTAINS CONSTANT-HEAD CELLS


 MAXIMUM STEPSIZE DURING WHICH ANY PARTICLE CANNOT MOVE MORE THAN ONE CELL
 =  13.22    (WHEN MIN. R.F.=1)  AT K=  17, I=   1, J=  90

 MAXIMUM STEPSIZE WHICH MEETS STABILITY CRITERION OF THE ADVECTION TERM
 (FOR PURE FINITE-DIFFERENCE OPTION, MIXELM=0) 
 =  8.003    (WHEN MIN. R.F.=1)  AT K=  16, I=   1, J=  90


 TOTAL NUMBER OF POINT SOURCES/SINKS PRESENT IN THE FLOW MODEL =    30

 MAXIMUM STEPSIZE WHICH MEETS STABILITY CRITERION OF THE SINK & SOURCE TERM
 =  12.17    (WHEN MIN. R.F.=1)  AT K=  17, I=   1, J=  91

 MAXIMUM STEPSIZE WHICH MEETS STABILITY CRITERION OF THE DISPERSION TERM
 =  4.367    (WHEN MIN. R.F.=1)  AT K=  17, I=   1, J=  90
     1 CALLS TO GCG PACKAGE FOR TRANSPORT TIME STEP 234 IN FLOW TIME STEP   1 STRESS PERIOD   1
     7 TOTAL ITERATIONS
     1 CALLS TO GCG PACKAGE FOR TRANSPORT TIME STEP 234 IN FLOW TIME STEP   1 STRESS PERIOD   1
     8 TOTAL ITERATIONS
 
 SOLVING FOR HEAD 


     2 CALLS TO PCG ROUTINE FOR TIME STEP   1 IN STRESS PERIOD    1
     9 TOTAL ITERATIONS

 MAXIMUM HEAD CHANGE FOR EACH ITERATION (1 INDICATES THE FIRST INNER ITERATION):

    HEAD CHANGE    HEAD CHANGE    HEAD CHANGE    HEAD CHANGE    HEAD CHANGE 
   LAYER,ROW,COL  LAYER,ROW,COL  LAYER,ROW,COL  LAYER,ROW,COL  LAYER,ROW,COL
 ---------------------------------------------------------------------------
  1  0.1351E-01  0 -0.2018E-01  0  0.1758E-01  0 -0.2675E-02  0 -0.4144E-02
   ( 15,  1, 86)  (  8,  1, 12)  (  8,  1, 12)  ( 11,  1, 49)  (  8,  1, 53)
  0  0.1870E-02  0 -0.1481E-02  0  0.8804E-03  1  0.3679E-03
   (  8,  1, 52)  ( 11,  1, 70)  ( 11,  1, 70)  ( 11,  1, 65)

 MAXIMUM RESIDUAL FOR EACH ITERATION (1 INDICATES THE FIRST INNER ITERATION):

    RESIDUAL       RESIDUAL       RESIDUAL       RESIDUAL       RESIDUAL    
   LAYER,ROW,COL  LAYER,ROW,COL  LAYER,ROW,COL  LAYER,ROW,COL  LAYER,ROW,COL
 ---------------------------------------------------------------------------
  1  0.1322E+06  0  0.1024E+06  0 -0.9150E+05  0 -0.1288E+05  0   4130.    
   ( 21,  1, 89)  ( 21,  1, 89)  ( 19,  1, 89)  ( 17,  1, 87)  ( 18,  1, 89)
  0   2909.      0   1556.      0   574.4      1   514.5    
   ( 22,  1, 87)  ( 22,  1, 87)  ( 22,  1, 87)  ( 22,  1, 87)


 FLOW MODEL IS TRANSIENT
 FLOW MODEL CONTAINS CONSTANT-HEAD CELLS


 MAXIMUM STEPSIZE DURING WHICH ANY PARTICLE CANNOT MOVE MORE THAN ONE CELL
 =  12.86    (WHEN MIN. R.F.=1)  AT K=  17, I=   1, J=  90

 MAXIMUM STEPSIZE WHICH MEETS STABILITY CRITERION OF THE ADVECTION TERM
 (FOR PURE FINITE-DIFFERENCE OPTION, MIXELM=0) 
 =  8.036    (WHEN MIN. R.F.=1)  AT K=  16, I=   1, J=  90


 TOTAL NUMBER OF POINT SOURCES/SINKS PRESENT IN THE FLOW MODEL =    30

 MAXIMUM STEPSIZE WHICH MEETS STABILITY CRITERION OF THE SINK & SOURCE TERM
 =  12.21    (WHEN MIN. R.F.=1)  AT K=  17, I=   1, J=  91

 MAXIMUM STEPSIZE WHICH MEETS STABILITY CRITERION OF THE DISPERSION TERM
 =  4.033    (WHEN MIN. R.F.=1)  AT K=  17, I=   1, J=  90
     1 CALLS TO GCG PACKAGE FOR TRANSPORT TIME STEP 235 IN FLOW TIME STEP   1 STRESS PERIOD   1
     8 TOTAL ITERATIONS
  MAXIMUM CONCENTRATION CHANGES FOR EACH ITERATION:
  MAX. CHANGE LAYER,ROW,COL MAX. CHANGE LAYER,ROW,COL MAX. CHANGE LAYER,ROW,COL MAX. CHANGE LAYER,ROW,COL MAX. CHANGE LAYER,ROW,COL
 ------------------------------------------------------------------------------------------------------------------------------------
   0.5262E-01 ( 20,  1, 87)  0.4179E-02 ( 19,  1, 89)  0.2150E-02 ( 18,  1, 86)  0.4756E-03 ( 20,  1, 89)  0.9515E-04 ( 16,  1, 89)
   0.1975E-04 ( 20,  1, 89)  0.1784E-04 ( 16,  1, 90)  0.7656E-06 ( 17,  1, 90)
     1 CALLS TO GCG PACKAGE FOR TRANSPORT TIME STEP 235 IN FLOW TIME STEP   1 STRESS PERIOD   1
     9 TOTAL ITERATIONS
  MAXIMUM CONCENTRATION CHANGES FOR EACH ITERATION:
  MAX. CHANGE LAYER,ROW,COL MAX. CHANGE LAYER,ROW,COL MAX. CHANGE LAYER,ROW,COL MAX. CHANGE LAYER,ROW,COL MAX. CHANGE LAYER,ROW,COL
 ------------------------------------------------------------------------------------------------------------------------------------
   0.6253E-01 ( 20,  1, 87)  0.4990E-02 ( 19,  1, 86)  0.2192E-02 ( 19,  1, 89)  0.9851E-03 ( 19,  1, 89)  0.1580E-03 ( 16,  1, 89)
   0.6681E-04 ( 16,  1, 89)  0.1291E-04 ( 16,  1, 90)  0.1031E-05 ( 17,  1, 90)  0.1774E-06 ( 18,  1, 90)
 
 SOLVING FOR HEAD 


     2 CALLS TO PCG ROUTINE FOR TIME STEP   1 IN STRESS PERIOD    1
     9 TOTAL ITERATIONS

 MAXIMUM HEAD CHANGE FOR EACH ITERATION (1 INDICATES THE FIRST INNER ITERATION):

    HEAD CHANGE    HEAD CHANGE    HEAD CHANGE    HEAD CHANGE    HEAD CHANGE 
   LAYER,ROW,COL  LAYER,ROW,COL  LAYER,ROW,COL  LAYER,ROW,COL  LAYER,ROW,COL
 ---------------------------------------------------------------------------
  1 -0.1338E-01  0  0.3621E-02  0  0.2322E-02  0  0.7369E-02  0 -0.8850E-02
   ( 15,  1, 86)  ( 17,  1, 89)  (  8,  1, 12)  ( 11,  1, 52)  ( 11,  1, 53)
  0  0.1698E-02  0  0.1025E-02  0  0.6109E-03  1 -0.8452E-03
   ( 11,  1, 53)  ( 11,  1, 70)  ( 11,  1, 64)  ( 11,  1, 70)

 MAXIMUM RESIDUAL FOR EACH ITERATION (1 INDICATES THE FIRST INNER ITERATION):

    RESIDUAL       RESIDUAL       RESIDUAL       RESIDUAL       RESIDUAL    
   LAYER,ROW,COL  LAYER,ROW,COL  LAYER,ROW,COL  LAYER,ROW,COL  LAYER,ROW,COL
 ---------------------------------------------------------------------------
  1 -0.1331E+06  0  0.9376E+05  0  0.9193E+05  0  0.1827E+05  0   4905.    
   ( 21,  1, 89)  ( 19,  1, 89)  ( 19,  1, 89)  ( 19,  1, 89)  ( 17,  1, 87)
  0  -2826.      0  -1998.      0  -821.8      1  -694.8    
   ( 22,  1, 87)  ( 22,  1, 87)  ( 22,  1, 87)  ( 22,  1, 87)


 FLOW MODEL IS TRANSIENT
 FLOW MODEL CONTAINS CONSTANT-HEAD CELLS


 MAXIMUM STEPSIZE DURING WHICH ANY PARTICLE CANNOT MOVE MORE THAN ONE CELL
 =  13.21    (WHEN MIN. R.F.=1)  AT K=  17, I=   1, J=  90

 MAXIMUM STEPSIZE WHICH MEETS STABILITY CRITERION OF THE ADVECTION TERM
 (FOR PURE FINITE-DIFFERENCE OPTION, MIXELM=0) 
 =  8.002    (WHEN MIN. R.F.=1)  AT K=  16, I=   1, J=  90


 TOTAL NUMBER OF POINT SOURCES/SINKS PRESENT IN THE FLOW MODEL =    30

 MAXIMUM STEPSIZE WHICH MEETS STABILITY CRITERION OF THE SINK & SOURCE TERM
 =  12.17    (WHEN MIN. R.F.=1)  AT K=  17, I=   1, J=  91

 MAXIMUM STEPSIZE WHICH MEETS STABILITY CRITERION OF THE DISPERSION TERM
 =  4.358    (WHEN MIN. R.F.=1)  AT K=  17, I=   1, J=  90
     1 CALLS TO GCG PACKAGE FOR TRANSPORT TIME STEP 236 IN FLOW TIME STEP   1 STRESS PERIOD   1
     9 TOTAL ITERATIONS
     1 CALLS TO GCG PACKAGE FOR TRANSPORT TIME STEP 236 IN FLOW TIME STEP   1 STRESS PERIOD   1
     8 TOTAL ITERATIONS
 
 SOLVING FOR HEAD 


     2 CALLS TO PCG ROUTINE FOR TIME STEP   1 IN STRESS PERIOD    1
     9 TOTAL ITERATIONS

 MAXIMUM HEAD CHANGE FOR EACH ITERATION (1 INDICATES THE FIRST INNER ITERATION):

    HEAD CHANGE    HEAD CHANGE    HEAD CHANGE    HEAD CHANGE    HEAD CHANGE 
   LAYER,ROW,COL  LAYER,ROW,COL  LAYER,ROW,COL  LAYER,ROW,COL  LAYER,ROW,COL
 ---------------------------------------------------------------------------
  1  0.1348E-01  0 -0.3579E-02  0 -0.2397E-02  0  0.8995E-02  0 -0.8559E-02
   ( 15,  1, 86)  ( 17,  1, 89)  (  8,  1, 12)  (  7,  1, 53)  (  7,  1, 53)
  0  0.1059E-02  0 -0.1006E-02  0 -0.6903E-03  1  0.8218E-03
   (  8,  1, 42)  ( 11,  1, 53)  ( 11,  1, 70)  ( 11,  1, 70)

 MAXIMUM RESIDUAL FOR EACH ITERATION (1 INDICATES THE FIRST INNER ITERATION):

    RESIDUAL       RESIDUAL       RESIDUAL       RESIDUAL       RESIDUAL    
   LAYER,ROW,COL  LAYER,ROW,COL  LAYER,ROW,COL  LAYER,ROW,COL  LAYER,ROW,COL
 ---------------------------------------------------------------------------
  1  0.1309E+06  0 -0.9133E+05  0 -0.8952E+05  0 -0.3985E+05  0  -5997.    
   ( 21,  1, 89)  ( 19,  1, 89)  ( 19,  1, 89)  ( 19,  1, 89)  ( 17,  1, 87)
  0   2918.      0   2375.      0   817.6      1   683.8    
   ( 22,  1, 87)  ( 22,  1, 87)  ( 22,  1, 87)  ( 22,  1, 87)


 FLOW MODEL IS TRANSIENT
 FLOW MODEL CONTAINS CONSTANT-HEAD CELLS


 MAXIMUM STEPSIZE DURING WHICH ANY PARTICLE CANNOT MOVE MORE THAN ONE CELL
 =  12.86    (WHEN MIN. R.F.=1)  AT K=  17, I=   1, J=  90

 MAXIMUM STEPSIZE WHICH MEETS STABILITY CRITERION OF THE ADVECTION TERM
 (FOR PURE FINITE-DIFFERENCE OPTION, MIXELM=0) 
 =  8.033    (WHEN MIN. R.F.=1)  AT K=  16, I=   1, J=  90


 TOTAL NUMBER OF POINT SOURCES/SINKS PRESENT IN THE FLOW MODEL =    30

 MAXIMUM STEPSIZE WHICH MEETS STABILITY CRITERION OF THE SINK & SOURCE TERM
 =  12.20    (WHEN MIN. R.F.=1)  AT K=  17, I=   1, J=  91

 MAXIMUM STEPSIZE WHICH MEETS STABILITY CRITERION OF THE DISPERSION TERM
 =  4.034    (WHEN MIN. R.F.=1)  AT K=  17, I=   1, J=  90
     1 CALLS TO GCG PACKAGE FOR TRANSPORT TIME STEP 237 IN FLOW TIME STEP   1 STRESS PERIOD   1
     8 TOTAL ITERATIONS
     1 CALLS TO GCG PACKAGE FOR TRANSPORT TIME STEP 237 IN FLOW TIME STEP   1 STRESS PERIOD   1
     9 TOTAL ITERATIONS
 
 SOLVING FOR HEAD 


     2 CALLS TO PCG ROUTINE FOR TIME STEP   1 IN STRESS PERIOD    1
     8 TOTAL ITERATIONS

 MAXIMUM HEAD CHANGE FOR EACH ITERATION (1 INDICATES THE FIRST INNER ITERATION):

    HEAD CHANGE    HEAD CHANGE    HEAD CHANGE    HEAD CHANGE    HEAD CHANGE 
   LAYER,ROW,COL  LAYER,ROW,COL  LAYER,ROW,COL  LAYER,ROW,COL  LAYER,ROW,COL
 ---------------------------------------------------------------------------
  1 -0.1343E-01  0  0.3621E-02  0  0.2322E-02  0  0.8941E-02  0 -0.9565E-02
   ( 15,  1, 86)  ( 17,  1, 89)  (  7,  1, 12)  ( 11,  1, 51)  ( 11,  1, 52)
  0  0.1680E-02  0  0.7462E-03  1  0.6372E-03
   ( 11,  1, 54)  ( 11,  1, 49)  ( 11,  1, 64)

 MAXIMUM RESIDUAL FOR EACH ITERATION (1 INDICATES THE FIRST INNER ITERATION):

    RESIDUAL       RESIDUAL       RESIDUAL       RESIDUAL       RESIDUAL    
   LAYER,ROW,COL  LAYER,ROW,COL  LAYER,ROW,COL  LAYER,ROW,COL  LAYER,ROW,COL
 ---------------------------------------------------------------------------
  1 -0.1323E+06  0  0.9317E+05  0  0.9135E+05  0  0.2535E+05  0   5279.    
   ( 21,  1, 89)  ( 19,  1, 89)  ( 19,  1, 89)  ( 19,  1, 89)  ( 17,  1, 87)
  0  -2850.      0  -2378.      1  -2044.    
   ( 22,  1, 87)  ( 22,  1, 87)  ( 22,  1, 87)


 FLOW MODEL IS TRANSIENT
 FLOW MODEL CONTAINS CONSTANT-HEAD CELLS


 MAXIMUM STEPSIZE DURING WHICH ANY PARTICLE CANNOT MOVE MORE THAN ONE CELL
 =  13.21    (WHEN MIN. R.F.=1)  AT K=  17, I=   1, J=  90

 MAXIMUM STEPSIZE WHICH MEETS STABILITY CRITERION OF THE ADVECTION TERM
 (FOR PURE FINITE-DIFFERENCE OPTION, MIXELM=0) 
 =  8.003    (WHEN MIN. R.F.=1)  AT K=  16, I=   1, J=  90


 TOTAL NUMBER OF POINT SOURCES/SINKS PRESENT IN THE FLOW MODEL =    30

 MAXIMUM STEPSIZE WHICH MEETS STABILITY CRITERION OF THE SINK & SOURCE TERM
 =  12.17    (WHEN MIN. R.F.=1)  AT K=  17, I=   1, J=  91

 MAXIMUM STEPSIZE WHICH MEETS STABILITY CRITERION OF THE DISPERSION TERM
 =  4.354    (WHEN MIN. R.F.=1)  AT K=  17, I=   1, J=  90
     1 CALLS TO GCG PACKAGE FOR TRANSPORT TIME STEP 238 IN FLOW TIME STEP   1 STRESS PERIOD   1
     8 TOTAL ITERATIONS
     1 CALLS TO GCG PACKAGE FOR TRANSPORT TIME STEP 238 IN FLOW TIME STEP   1 STRESS PERIOD   1
     8 TOTAL ITERATIONS
 
 SOLVING FOR HEAD 


     2 CALLS TO PCG ROUTINE FOR TIME STEP   1 IN STRESS PERIOD    1
     9 TOTAL ITERATIONS

 MAXIMUM HEAD CHANGE FOR EACH ITERATION (1 INDICATES THE FIRST INNER ITERATION):

    HEAD CHANGE    HEAD CHANGE    HEAD CHANGE    HEAD CHANGE    HEAD CHANGE 
   LAYER,ROW,COL  LAYER,ROW,COL  LAYER,ROW,COL  LAYER,ROW,COL  LAYER,ROW,COL
 ---------------------------------------------------------------------------
  1  0.1384E-01  0  0.4947E-02  0 -0.3966E-02  0 -0.9171E-02  0  0.7647E-02
   ( 15,  1, 86)  (  6,  1, 50)  (  8,  1, 12)  (  7,  1, 51)  (  7,  1, 51)
  0 -0.2929E-02  0 -0.1169E-02  0 -0.7456E-03  1  0.6963E-03
   ( 11,  1, 69)  ( 11,  1, 64)  ( 11,  1, 54)  ( 11,  1, 54)

 MAXIMUM RESIDUAL FOR EACH ITERATION (1 INDICATES THE FIRST INNER ITERATION):

    RESIDUAL       RESIDUAL       RESIDUAL       RESIDUAL       RESIDUAL    
   LAYER,ROW,COL  LAYER,ROW,COL  LAYER,ROW,COL  LAYER,ROW,COL  LAYER,ROW,COL
 ---------------------------------------------------------------------------
  1  0.1328E+06  0 -0.9402E+05  0 -0.9326E+05  0 -0.6590E+05  0  -5912.    
   ( 21,  1, 89)  ( 19,  1, 89)  ( 19,  1, 89)  ( 19,  1, 89)  ( 17,  1, 87)
  0   2775.      0   2599.      0   825.6      1   733.1    
   ( 22,  1, 87)  ( 22,  1, 87)  ( 22,  1, 87)  ( 22,  1, 87)


 FLOW MODEL IS TRANSIENT
 FLOW MODEL CONTAINS CONSTANT-HEAD CELLS


 MAXIMUM STEPSIZE DURING WHICH ANY PARTICLE CANNOT MOVE MORE THAN ONE CELL
 =  12.90    (WHEN MIN. R.F.=1)  AT K=  17, I=   1, J=  90

 MAXIMUM STEPSIZE WHICH MEETS STABILITY CRITERION OF THE ADVECTION TERM
 (FOR PURE FINITE-DIFFERENCE OPTION, MIXELM=0) 
 =  8.054    (WHEN MIN. R.F.=1)  AT K=  16, I=   1, J=  90


 TOTAL NUMBER OF POINT SOURCES/SINKS PRESENT IN THE FLOW MODEL =    30

 MAXIMUM STEPSIZE WHICH MEETS STABILITY CRITERION OF THE SINK & SOURCE TERM
 =  12.27    (WHEN MIN. R.F.=1)  AT K=  17, I=   1, J=  91

 MAXIMUM STEPSIZE WHICH MEETS STABILITY CRITERION OF THE DISPERSION TERM
 =  4.047    (WHEN MIN. R.F.=1)  AT K=  17, I=   1, J=  90
     1 CALLS TO GCG PACKAGE FOR TRANSPORT TIME STEP 239 IN FLOW TIME STEP   1 STRESS PERIOD   1
     8 TOTAL ITERATIONS
     1 CALLS TO GCG PACKAGE FOR TRANSPORT TIME STEP 239 IN FLOW TIME STEP   1 STRESS PERIOD   1
     9 TOTAL ITERATIONS
 
 SOLVING FOR HEAD 


     2 CALLS TO PCG ROUTINE FOR TIME STEP   1 IN STRESS PERIOD    1
     9 TOTAL ITERATIONS

 MAXIMUM HEAD CHANGE FOR EACH ITERATION (1 INDICATES THE FIRST INNER ITERATION):

    HEAD CHANGE    HEAD CHANGE    HEAD CHANGE    HEAD CHANGE    HEAD CHANGE 
   LAYER,ROW,COL  LAYER,ROW,COL  LAYER,ROW,COL  LAYER,ROW,COL  LAYER,ROW,COL
 ---------------------------------------------------------------------------
  1 -0.1355E-01  0  0.3902E-02  0  0.2875E-02  0 -0.1114E-01  0  0.1199E-01
   ( 15,  1, 86)  ( 17,  1, 89)  (  8,  1, 12)  ( 11,  1, 54)  ( 11,  1, 54)
  0 -0.2143E-02  0  0.1052E-02  0  0.6788E-03  1 -0.8211E-03
   ( 11,  1, 52)  ( 11,  1, 49)  ( 11,  1, 70)  ( 11,  1, 70)

 MAXIMUM RESIDUAL FOR EACH ITERATION (1 INDICATES THE FIRST INNER ITERATION):

    RESIDUAL       RESIDUAL       RESIDUAL       RESIDUAL       RESIDUAL    
   LAYER,ROW,COL  LAYER,ROW,COL  LAYER,ROW,COL  LAYER,ROW,COL  LAYER,ROW,COL
 ---------------------------------------------------------------------------
  1 -0.1336E+06  0  0.9470E+05  0  0.9365E+05  0  0.1931E+05  0   4804.    
   ( 21,  1, 89)  ( 19,  1, 89)  ( 19,  1, 89)  ( 19,  1, 89)  ( 17,  1, 87)
  0  -2879.      0  -2427.      0  -723.4      1  -602.8    
   ( 22,  1, 87)  ( 22,  1, 87)  ( 22,  1, 87)  ( 22,  1, 87)


 FLOW MODEL IS TRANSIENT
 FLOW MODEL CONTAINS CONSTANT-HEAD CELLS


 MAXIMUM STEPSIZE DURING WHICH ANY PARTICLE CANNOT MOVE MORE THAN ONE CELL
 =  13.23    (WHEN MIN. R.F.=1)  AT K=  17, I=   1, J=  90

 MAXIMUM STEPSIZE WHICH MEETS STABILITY CRITERION OF THE ADVECTION TERM
 (FOR PURE FINITE-DIFFERENCE OPTION, MIXELM=0) 
 =  8.007    (WHEN MIN. R.F.=1)  AT K=  16, I=   1, J=  90


 TOTAL NUMBER OF POINT SOURCES/SINKS PRESENT IN THE FLOW MODEL =    30

 MAXIMUM STEPSIZE WHICH MEETS STABILITY CRITERION OF THE SINK & SOURCE TERM
 =  12.19    (WHEN MIN. R.F.=1)  AT K=  17, I=   1, J=  91

 MAXIMUM STEPSIZE WHICH MEETS STABILITY CRITERION OF THE DISPERSION TERM
 =  4.368    (WHEN MIN. R.F.=1)  AT K=  17, I=   1, J=  90
     1 CALLS TO GCG PACKAGE FOR TRANSPORT TIME STEP 240 IN FLOW TIME STEP   1 STRESS PERIOD   1
     9 TOTAL ITERATIONS
  MAXIMUM CONCENTRATION CHANGES FOR EACH ITERATION:
  MAX. CHANGE LAYER,ROW,COL MAX. CHANGE LAYER,ROW,COL MAX. CHANGE LAYER,ROW,COL MAX. CHANGE LAYER,ROW,COL MAX. CHANGE LAYER,ROW,COL
 ------------------------------------------------------------------------------------------------------------------------------------
   0.4928E-01 ( 20,  1, 87)  0.3338E-02 ( 19,  1, 87)  0.2232E-02 ( 18,  1, 87)  0.2174E-03 ( 16,  1, 88)  0.1399E-03 ( 17,  1, 89)
   0.3090E-04 ( 16,  1, 90)  0.3061E-05 ( 21,  1, 78)  0.7824E-05 ( 21,  1, 78)  0.6356E-06 ( 16,  1, 89)
     1 CALLS TO GCG PACKAGE FOR TRANSPORT TIME STEP 240 IN FLOW TIME STEP   1 STRESS PERIOD   1
     8 TOTAL ITERATIONS
  MAXIMUM CONCENTRATION CHANGES FOR EACH ITERATION:
  MAX. CHANGE LAYER,ROW,COL MAX. CHANGE LAYER,ROW,COL MAX. CHANGE LAYER,ROW,COL MAX. CHANGE LAYER,ROW,COL MAX. CHANGE LAYER,ROW,COL
 ------------------------------------------------------------------------------------------------------------------------------------
   0.5800E-01 ( 19,  1, 88)  0.5906E-02 ( 19,  1, 87)  0.2470E-02 ( 18,  1, 87)  0.6697E-03 ( 18,  1, 87)  0.1380E-03 ( 17,  1, 89)
   0.4053E-04 ( 17,  1, 90)  0.7194E-05 ( 17,  1, 90)  0.7420E-06 ( 18,  1, 90)



 >>>>>>>>>>>>>>>>>>>>>>>>>>>>>>>>>>>>>>>>>>>>>>>>>>>>>>>FOR COMPONENT NO. 01<<<<<<<<<<<<<<<<<<<<<<<<<<<<<<<<<<<<<<<<<<<<<<<<<<<<<<<


                                            -------------------------------------------
                                                      TRANSPORT STEP NO.  240
                                            -------------------------------------------

 TOTAL ELAPSED TIME SINCE BEGINNING OF SIMULATION =   12000.00    D   
 .....................................................................

                     CUMMULATIVE MASS BUDGETS AT END OF TRANSPORT STEP  240, TIME STEP    1, STRESS PERIOD    1
                     ------------------------------------------------------------------------------------------

                                                             IN                           OUT
                                                      ----------------             ----------------
                               CONSTANT CONCENTRATION:    0.000000                    0.000000    
                                        CONSTANT HEAD:   0.4751191E+09              -0.4749378E+09
                                                WELLS:    0.000000                    0.000000    
                                             RECHARGE:    0.000000                    0.000000    
                               1ST/0TH ORDER REACTION:    0.000000                    0.000000    
                                MASS STORAGE (SOLUTE):   0.6653363E+08              -0.6671500E+08
                            ---------------------------------------------------------------------------
                                              [TOTAL]:   0.5416533E+09 KG           -0.5416533E+09 KG  

                                                          NET (IN - OUT):   -71.70080    
                                                   DISCREPANCY (PERCENT):  -0.1323740E-04



 >>>>>>>>>>>>>>>>>>>>>>>>>>>>>>>>>>>>>>>>>>>>>>>>>>>>>>>FOR COMPONENT NO. 02<<<<<<<<<<<<<<<<<<<<<<<<<<<<<<<<<<<<<<<<<<<<<<<<<<<<<<<


                                            -------------------------------------------
                                                      TRANSPORT STEP NO.  240
                                            -------------------------------------------

 TOTAL ELAPSED TIME SINCE BEGINNING OF SIMULATION =   12000.00    D   
 .....................................................................

                     CUMMULATIVE MASS BUDGETS AT END OF TRANSPORT STEP  240, TIME STEP    1, STRESS PERIOD    1
                     ------------------------------------------------------------------------------------------

                                                             IN                           OUT
                                                      ----------------             ----------------
                               CONSTANT CONCENTRATION:    0.000000                    0.000000    
                                        CONSTANT HEAD:    0.000000                  -0.4264222E+11
                                                WELLS:    0.000000                    0.000000    
                                             RECHARGE:    0.000000                    0.000000    
                               1ST/0TH ORDER REACTION:   0.1986000E+12                0.000000    
                                MASS STORAGE (SOLUTE):   0.9918998E+10              -0.1658768E+12
                            ---------------------------------------------------------------------------
                                              [TOTAL]:   0.2085192E+12 KG           -0.2085192E+12 KG  

                                                          NET (IN - OUT):   -5191.740    
                                                   DISCREPANCY (PERCENT):  -0.2489814E-05
 
 SOLVING FOR HEAD 


     2 CALLS TO PCG ROUTINE FOR TIME STEP   1 IN STRESS PERIOD    1
     9 TOTAL ITERATIONS

 MAXIMUM HEAD CHANGE FOR EACH ITERATION (1 INDICATES THE FIRST INNER ITERATION):

    HEAD CHANGE    HEAD CHANGE    HEAD CHANGE    HEAD CHANGE    HEAD CHANGE 
   LAYER,ROW,COL  LAYER,ROW,COL  LAYER,ROW,COL  LAYER,ROW,COL  LAYER,ROW,COL
 ---------------------------------------------------------------------------
  1  0.1331E-01  0 -0.3621E-02  0 -0.2735E-02  0  0.9171E-02  0 -0.1006E-01
   ( 15,  1, 86)  ( 17,  1, 89)  (  8,  1, 12)  ( 11,  1, 69)  ( 11,  1, 69)
  0  0.1808E-02  0 -0.1303E-02  0 -0.6981E-03  1  0.5017E-03
   ( 11,  1, 68)  ( 11,  1, 63)  ( 11,  1, 70)  ( 11,  1, 64)

 MAXIMUM RESIDUAL FOR EACH ITERATION (1 INDICATES THE FIRST INNER ITERATION):

    RESIDUAL       RESIDUAL       RESIDUAL       RESIDUAL       RESIDUAL    
   LAYER,ROW,COL  LAYER,ROW,COL  LAYER,ROW,COL  LAYER,ROW,COL  LAYER,ROW,COL
 ---------------------------------------------------------------------------
  1  0.1341E+06  0 -0.9442E+05  0 -0.9073E+05  0 -0.1944E+05  0  -4933.    
   ( 21,  1, 89)  ( 19,  1, 89)  ( 19,  1, 89)  ( 19,  1, 89)  ( 17,  1, 87)
  0   2848.      0   2547.      0   899.7      1   781.3    
   ( 22,  1, 87)  ( 22,  1, 87)  ( 22,  1, 87)  ( 22,  1, 87)


 FLOW MODEL IS TRANSIENT
 FLOW MODEL CONTAINS CONSTANT-HEAD CELLS


 MAXIMUM STEPSIZE DURING WHICH ANY PARTICLE CANNOT MOVE MORE THAN ONE CELL
 =  12.85    (WHEN MIN. R.F.=1)  AT K=  17, I=   1, J=  90

 MAXIMUM STEPSIZE WHICH MEETS STABILITY CRITERION OF THE ADVECTION TERM
 (FOR PURE FINITE-DIFFERENCE OPTION, MIXELM=0) 
 =  8.032    (WHEN MIN. R.F.=1)  AT K=  16, I=   1, J=  90


 TOTAL NUMBER OF POINT SOURCES/SINKS PRESENT IN THE FLOW MODEL =    30

 MAXIMUM STEPSIZE WHICH MEETS STABILITY CRITERION OF THE SINK & SOURCE TERM
 =  12.20    (WHEN MIN. R.F.=1)  AT K=  17, I=   1, J=  91

 MAXIMUM STEPSIZE WHICH MEETS STABILITY CRITERION OF THE DISPERSION TERM
 =  4.027    (WHEN MIN. R.F.=1)  AT K=  17, I=   1, J=  90
     1 CALLS TO GCG PACKAGE FOR TRANSPORT TIME STEP 241 IN FLOW TIME STEP   1 STRESS PERIOD   1
     8 TOTAL ITERATIONS
     1 CALLS TO GCG PACKAGE FOR TRANSPORT TIME STEP 241 IN FLOW TIME STEP   1 STRESS PERIOD   1
     9 TOTAL ITERATIONS
 
 SOLVING FOR HEAD 


     2 CALLS TO PCG ROUTINE FOR TIME STEP   1 IN STRESS PERIOD    1
    10 TOTAL ITERATIONS

 MAXIMUM HEAD CHANGE FOR EACH ITERATION (1 INDICATES THE FIRST INNER ITERATION):

    HEAD CHANGE    HEAD CHANGE    HEAD CHANGE    HEAD CHANGE    HEAD CHANGE 
   LAYER,ROW,COL  LAYER,ROW,COL  LAYER,ROW,COL  LAYER,ROW,COL  LAYER,ROW,COL
 ---------------------------------------------------------------------------
  1 -0.1349E-01  0  0.3694E-02  0  0.2850E-02  0  0.1084E-01  0 -0.9916E-02
   ( 15,  1, 86)  ( 17,  1, 89)  (  8,  1, 12)  ( 11,  1, 58)  ( 11,  1, 58)
  0 -0.1646E-02  0  0.1272E-02  0  0.1216E-02  0 -0.9181E-03  1 -0.2811E-03
   ( 11,  1, 36)  ( 11,  1, 58)  ( 11,  1, 70)  ( 11,  1, 70)  ( 11,  1, 53)

 MAXIMUM RESIDUAL FOR EACH ITERATION (1 INDICATES THE FIRST INNER ITERATION):

    RESIDUAL       RESIDUAL       RESIDUAL       RESIDUAL       RESIDUAL    
   LAYER,ROW,COL  LAYER,ROW,COL  LAYER,ROW,COL  LAYER,ROW,COL  LAYER,ROW,COL
 ---------------------------------------------------------------------------
  1 -0.1323E+06  0  0.9245E+05  0  0.9144E+05  0  0.2989E+05  0   5736.    
   ( 21,  1, 89)  ( 19,  1, 89)  ( 19,  1, 89)  ( 19,  1, 89)  ( 17,  1, 87)
  0  -2852.      0  -2594.      0  -1013.      0  -404.8      1  -355.8    
   ( 22,  1, 87)  ( 22,  1, 87)  ( 22,  1, 87)  ( 22,  1, 87)  ( 22,  1, 87)


 FLOW MODEL IS TRANSIENT
 FLOW MODEL CONTAINS CONSTANT-HEAD CELLS


 MAXIMUM STEPSIZE DURING WHICH ANY PARTICLE CANNOT MOVE MORE THAN ONE CELL
 =  13.20    (WHEN MIN. R.F.=1)  AT K=  17, I=   1, J=  90

 MAXIMUM STEPSIZE WHICH MEETS STABILITY CRITERION OF THE ADVECTION TERM
 (FOR PURE FINITE-DIFFERENCE OPTION, MIXELM=0) 
 =  7.997    (WHEN MIN. R.F.=1)  AT K=  16, I=   1, J=  90


 TOTAL NUMBER OF POINT SOURCES/SINKS PRESENT IN THE FLOW MODEL =    30

 MAXIMUM STEPSIZE WHICH MEETS STABILITY CRITERION OF THE SINK & SOURCE TERM
 =  12.16    (WHEN MIN. R.F.=1)  AT K=  17, I=   1, J=  91

 MAXIMUM STEPSIZE WHICH MEETS STABILITY CRITERION OF THE DISPERSION TERM
 =  4.351    (WHEN MIN. R.F.=1)  AT K=  17, I=   1, J=  90
     1 CALLS TO GCG PACKAGE FOR TRANSPORT TIME STEP 242 IN FLOW TIME STEP   1 STRESS PERIOD   1
     7 TOTAL ITERATIONS
     1 CALLS TO GCG PACKAGE FOR TRANSPORT TIME STEP 242 IN FLOW TIME STEP   1 STRESS PERIOD   1
     8 TOTAL ITERATIONS
 
 SOLVING FOR HEAD 


     2 CALLS TO PCG ROUTINE FOR TIME STEP   1 IN STRESS PERIOD    1
     8 TOTAL ITERATIONS

 MAXIMUM HEAD CHANGE FOR EACH ITERATION (1 INDICATES THE FIRST INNER ITERATION):

    HEAD CHANGE    HEAD CHANGE    HEAD CHANGE    HEAD CHANGE    HEAD CHANGE 
   LAYER,ROW,COL  LAYER,ROW,COL  LAYER,ROW,COL  LAYER,ROW,COL  LAYER,ROW,COL
 ---------------------------------------------------------------------------
  1  0.1343E-01  0 -0.3590E-02  0 -0.3279E-02  0  0.6147E-02  0 -0.8410E-02
   ( 15,  1, 86)  ( 17,  1, 89)  (  8,  1, 12)  ( 11,  1, 51)  ( 11,  1, 51)
  0  0.2847E-02  0 -0.8255E-03  1 -0.6694E-03
   ( 11,  1, 50)  ( 11,  1, 58)  ( 11,  1, 64)

 MAXIMUM RESIDUAL FOR EACH ITERATION (1 INDICATES THE FIRST INNER ITERATION):

    RESIDUAL       RESIDUAL       RESIDUAL       RESIDUAL       RESIDUAL    
   LAYER,ROW,COL  LAYER,ROW,COL  LAYER,ROW,COL  LAYER,ROW,COL  LAYER,ROW,COL
 ---------------------------------------------------------------------------
  1  0.1308E+06  0 -0.9138E+05  0 -0.8489E+05  0 -0.1448E+05  0  -4340.    
   ( 21,  1, 89)  ( 19,  1, 89)  ( 19,  1, 89)  ( 19,  1, 89)  ( 17,  1, 87)
  0   2888.      0   2344.      1   2048.    
   ( 22,  1, 87)  ( 22,  1, 87)  ( 22,  1, 87)


 FLOW MODEL IS TRANSIENT
 FLOW MODEL CONTAINS CONSTANT-HEAD CELLS


 MAXIMUM STEPSIZE DURING WHICH ANY PARTICLE CANNOT MOVE MORE THAN ONE CELL
 =  12.84    (WHEN MIN. R.F.=1)  AT K=  17, I=   1, J=  90

 MAXIMUM STEPSIZE WHICH MEETS STABILITY CRITERION OF THE ADVECTION TERM
 (FOR PURE FINITE-DIFFERENCE OPTION, MIXELM=0) 
 =  8.023    (WHEN MIN. R.F.=1)  AT K=  16, I=   1, J=  90


 TOTAL NUMBER OF POINT SOURCES/SINKS PRESENT IN THE FLOW MODEL =    30

 MAXIMUM STEPSIZE WHICH MEETS STABILITY CRITERION OF THE SINK & SOURCE TERM
 =  12.18    (WHEN MIN. R.F.=1)  AT K=  17, I=   1, J=  91

 MAXIMUM STEPSIZE WHICH MEETS STABILITY CRITERION OF THE DISPERSION TERM
 =  4.024    (WHEN MIN. R.F.=1)  AT K=  17, I=   1, J=  90
     1 CALLS TO GCG PACKAGE FOR TRANSPORT TIME STEP 243 IN FLOW TIME STEP   1 STRESS PERIOD   1
     8 TOTAL ITERATIONS
     1 CALLS TO GCG PACKAGE FOR TRANSPORT TIME STEP 243 IN FLOW TIME STEP   1 STRESS PERIOD   1
     9 TOTAL ITERATIONS
 
 SOLVING FOR HEAD 


     2 CALLS TO PCG ROUTINE FOR TIME STEP   1 IN STRESS PERIOD    1
     9 TOTAL ITERATIONS

 MAXIMUM HEAD CHANGE FOR EACH ITERATION (1 INDICATES THE FIRST INNER ITERATION):

    HEAD CHANGE    HEAD CHANGE    HEAD CHANGE    HEAD CHANGE    HEAD CHANGE 
   LAYER,ROW,COL  LAYER,ROW,COL  LAYER,ROW,COL  LAYER,ROW,COL  LAYER,ROW,COL
 ---------------------------------------------------------------------------
  1 -0.1375E-01  0 -0.4931E-02  0  0.3684E-02  0 -0.9442E-02  0 -0.7846E-02
   ( 15,  1, 86)  (  6,  1, 41)  (  8,  1, 12)  ( 11,  1, 36)  (  9,  1, 46)
  0  0.2639E-02  0 -0.1131E-02  0  0.7504E-03  1 -0.6805E-03
   ( 11,  1, 58)  ( 11,  1, 58)  ( 11,  1, 63)  ( 11,  1, 63)

 MAXIMUM RESIDUAL FOR EACH ITERATION (1 INDICATES THE FIRST INNER ITERATION):

    RESIDUAL       RESIDUAL       RESIDUAL       RESIDUAL       RESIDUAL    
   LAYER,ROW,COL  LAYER,ROW,COL  LAYER,ROW,COL  LAYER,ROW,COL  LAYER,ROW,COL
 ---------------------------------------------------------------------------
  1 -0.1335E+06  0  0.9409E+05  0  0.9327E+05  0  0.6219E+05  0   5976.    
   ( 21,  1, 89)  ( 19,  1, 89)  ( 19,  1, 89)  ( 19,  1, 89)  ( 17,  1, 87)
  0  -2786.      0  -2595.      0  -991.8      1  -874.6    
   ( 22,  1, 87)  ( 22,  1, 87)  ( 22,  1, 87)  ( 22,  1, 87)


 FLOW MODEL IS TRANSIENT
 FLOW MODEL CONTAINS CONSTANT-HEAD CELLS


 MAXIMUM STEPSIZE DURING WHICH ANY PARTICLE CANNOT MOVE MORE THAN ONE CELL
 =  13.14    (WHEN MIN. R.F.=1)  AT K=  17, I=   1, J=  90

 MAXIMUM STEPSIZE WHICH MEETS STABILITY CRITERION OF THE ADVECTION TERM
 (FOR PURE FINITE-DIFFERENCE OPTION, MIXELM=0) 
 =  7.972    (WHEN MIN. R.F.=1)  AT K=  16, I=   1, J=  90


 TOTAL NUMBER OF POINT SOURCES/SINKS PRESENT IN THE FLOW MODEL =    30

 MAXIMUM STEPSIZE WHICH MEETS STABILITY CRITERION OF THE SINK & SOURCE TERM
 =  12.08    (WHEN MIN. R.F.=1)  AT K=  17, I=   1, J=  91

 MAXIMUM STEPSIZE WHICH MEETS STABILITY CRITERION OF THE DISPERSION TERM
 =  4.327    (WHEN MIN. R.F.=1)  AT K=  17, I=   1, J=  90
     1 CALLS TO GCG PACKAGE FOR TRANSPORT TIME STEP 244 IN FLOW TIME STEP   1 STRESS PERIOD   1
    10 TOTAL ITERATIONS
     1 CALLS TO GCG PACKAGE FOR TRANSPORT TIME STEP 244 IN FLOW TIME STEP   1 STRESS PERIOD   1
     8 TOTAL ITERATIONS
 
 SOLVING FOR HEAD 


     2 CALLS TO PCG ROUTINE FOR TIME STEP   1 IN STRESS PERIOD    1
     9 TOTAL ITERATIONS

 MAXIMUM HEAD CHANGE FOR EACH ITERATION (1 INDICATES THE FIRST INNER ITERATION):

    HEAD CHANGE    HEAD CHANGE    HEAD CHANGE    HEAD CHANGE    HEAD CHANGE 
   LAYER,ROW,COL  LAYER,ROW,COL  LAYER,ROW,COL  LAYER,ROW,COL  LAYER,ROW,COL
 ---------------------------------------------------------------------------
  1  0.1370E-01  0 -0.4005E-02  0 -0.2988E-02  0 -0.8372E-02  0  0.9614E-02
   ( 15,  1, 86)  ( 17,  1, 89)  (  8,  1, 12)  ( 11,  1, 49)  ( 11,  1, 49)
  0  0.1823E-02  0 -0.1250E-02  0 -0.8513E-03  1  0.3782E-03
   ( 11,  1, 59)  ( 11,  1, 70)  ( 11,  1, 53)  ( 11,  1, 53)

 MAXIMUM RESIDUAL FOR EACH ITERATION (1 INDICATES THE FIRST INNER ITERATION):

    RESIDUAL       RESIDUAL       RESIDUAL       RESIDUAL       RESIDUAL    
   LAYER,ROW,COL  LAYER,ROW,COL  LAYER,ROW,COL  LAYER,ROW,COL  LAYER,ROW,COL
 ---------------------------------------------------------------------------
  1  0.1323E+06  0 -0.9391E+05  0 -0.9293E+05  0 -0.1965E+05  0   4702.    
   ( 21,  1, 89)  ( 19,  1, 89)  ( 19,  1, 89)  ( 19,  1, 89)  ( 17,  1, 88)
  0   2787.      0   2115.      0   653.0      1   554.5    
   ( 22,  1, 87)  ( 22,  1, 87)  ( 22,  1, 87)  ( 22,  1, 87)


 FLOW MODEL IS TRANSIENT
 FLOW MODEL CONTAINS CONSTANT-HEAD CELLS


 MAXIMUM STEPSIZE DURING WHICH ANY PARTICLE CANNOT MOVE MORE THAN ONE CELL
 =  12.84    (WHEN MIN. R.F.=1)  AT K=  17, I=   1, J=  90

 MAXIMUM STEPSIZE WHICH MEETS STABILITY CRITERION OF THE ADVECTION TERM
 (FOR PURE FINITE-DIFFERENCE OPTION, MIXELM=0) 
 =  8.029    (WHEN MIN. R.F.=1)  AT K=  16, I=   1, J=  90


 TOTAL NUMBER OF POINT SOURCES/SINKS PRESENT IN THE FLOW MODEL =    30

 MAXIMUM STEPSIZE WHICH MEETS STABILITY CRITERION OF THE SINK & SOURCE TERM
 =  12.17    (WHEN MIN. R.F.=1)  AT K=  17, I=   1, J=  91

 MAXIMUM STEPSIZE WHICH MEETS STABILITY CRITERION OF THE DISPERSION TERM
 =  4.024    (WHEN MIN. R.F.=1)  AT K=  17, I=   1, J=  90
     1 CALLS TO GCG PACKAGE FOR TRANSPORT TIME STEP 245 IN FLOW TIME STEP   1 STRESS PERIOD   1
     8 TOTAL ITERATIONS
  MAXIMUM CONCENTRATION CHANGES FOR EACH ITERATION:
  MAX. CHANGE LAYER,ROW,COL MAX. CHANGE LAYER,ROW,COL MAX. CHANGE LAYER,ROW,COL MAX. CHANGE LAYER,ROW,COL MAX. CHANGE LAYER,ROW,COL
 ------------------------------------------------------------------------------------------------------------------------------------
   0.5280E-01 ( 20,  1, 87)  0.4237E-02 ( 19,  1, 89)  0.2105E-02 ( 18,  1, 86)  0.4517E-03 ( 20,  1, 89)  0.9294E-04 ( 16,  1, 89)
   0.2058E-04 ( 20,  1, 89)  0.1791E-04 ( 16,  1, 90)  0.7560E-06 ( 17,  1, 90)
     1 CALLS TO GCG PACKAGE FOR TRANSPORT TIME STEP 245 IN FLOW TIME STEP   1 STRESS PERIOD   1
     9 TOTAL ITERATIONS
  MAXIMUM CONCENTRATION CHANGES FOR EACH ITERATION:
  MAX. CHANGE LAYER,ROW,COL MAX. CHANGE LAYER,ROW,COL MAX. CHANGE LAYER,ROW,COL MAX. CHANGE LAYER,ROW,COL MAX. CHANGE LAYER,ROW,COL
 ------------------------------------------------------------------------------------------------------------------------------------
   0.6259E-01 ( 20,  1, 87)  0.4781E-02 ( 19,  1, 86)  0.2188E-02 ( 19,  1, 89)  0.9445E-03 ( 19,  1, 89)  0.1598E-03 ( 16,  1, 89)
   0.6756E-04 ( 16,  1, 89)  0.1362E-04 ( 17,  1, 90)  0.1031E-05 ( 17,  1, 90)  0.1669E-06 ( 17,  1, 90)
 
 SOLVING FOR HEAD 


     2 CALLS TO PCG ROUTINE FOR TIME STEP   1 IN STRESS PERIOD    1
     9 TOTAL ITERATIONS

 MAXIMUM HEAD CHANGE FOR EACH ITERATION (1 INDICATES THE FIRST INNER ITERATION):

    HEAD CHANGE    HEAD CHANGE    HEAD CHANGE    HEAD CHANGE    HEAD CHANGE 
   LAYER,ROW,COL  LAYER,ROW,COL  LAYER,ROW,COL  LAYER,ROW,COL  LAYER,ROW,COL
 ---------------------------------------------------------------------------
  1 -0.1336E-01  0  0.3587E-02  0  0.2343E-02  0 -0.7867E-02  0  0.7844E-02
   ( 15,  1, 86)  ( 17,  1, 89)  (  8,  1, 12)  ( 11,  1, 54)  ( 11,  1, 54)
  0 -0.1545E-02  0  0.1102E-02  0  0.6626E-03  1 -0.7181E-03
   (  7,  1, 44)  ( 11,  1, 69)  ( 11,  1, 56)  ( 11,  1, 70)

 MAXIMUM RESIDUAL FOR EACH ITERATION (1 INDICATES THE FIRST INNER ITERATION):

    RESIDUAL       RESIDUAL       RESIDUAL       RESIDUAL       RESIDUAL    
   LAYER,ROW,COL  LAYER,ROW,COL  LAYER,ROW,COL  LAYER,ROW,COL  LAYER,ROW,COL
 ---------------------------------------------------------------------------
  1 -0.1289E+06  0  0.9003E+05  0  0.8854E+05  0  0.2628E+05  0   5655.    
   ( 21,  1, 89)  ( 19,  1, 89)  ( 19,  1, 89)  ( 19,  1, 89)  ( 17,  1, 87)
  0  -2870.      0  -2549.      0  -915.5      1  -781.7    
   ( 22,  1, 87)  ( 22,  1, 87)  ( 22,  1, 87)  ( 22,  1, 87)


 FLOW MODEL IS TRANSIENT
 FLOW MODEL CONTAINS CONSTANT-HEAD CELLS


 MAXIMUM STEPSIZE DURING WHICH ANY PARTICLE CANNOT MOVE MORE THAN ONE CELL
 =  13.22    (WHEN MIN. R.F.=1)  AT K=  17, I=   1, J=  90

 MAXIMUM STEPSIZE WHICH MEETS STABILITY CRITERION OF THE ADVECTION TERM
 (FOR PURE FINITE-DIFFERENCE OPTION, MIXELM=0) 
 =  8.004    (WHEN MIN. R.F.=1)  AT K=  16, I=   1, J=  90


 TOTAL NUMBER OF POINT SOURCES/SINKS PRESENT IN THE FLOW MODEL =    30

 MAXIMUM STEPSIZE WHICH MEETS STABILITY CRITERION OF THE SINK & SOURCE TERM
 =  12.17    (WHEN MIN. R.F.=1)  AT K=  17, I=   1, J=  91

 MAXIMUM STEPSIZE WHICH MEETS STABILITY CRITERION OF THE DISPERSION TERM
 =  4.362    (WHEN MIN. R.F.=1)  AT K=  17, I=   1, J=  90
     1 CALLS TO GCG PACKAGE FOR TRANSPORT TIME STEP 246 IN FLOW TIME STEP   1 STRESS PERIOD   1
     9 TOTAL ITERATIONS
     1 CALLS TO GCG PACKAGE FOR TRANSPORT TIME STEP 246 IN FLOW TIME STEP   1 STRESS PERIOD   1
     8 TOTAL ITERATIONS
 
 SOLVING FOR HEAD 


     2 CALLS TO PCG ROUTINE FOR TIME STEP   1 IN STRESS PERIOD    1
     9 TOTAL ITERATIONS

 MAXIMUM HEAD CHANGE FOR EACH ITERATION (1 INDICATES THE FIRST INNER ITERATION):

    HEAD CHANGE    HEAD CHANGE    HEAD CHANGE    HEAD CHANGE    HEAD CHANGE 
   LAYER,ROW,COL  LAYER,ROW,COL  LAYER,ROW,COL  LAYER,ROW,COL  LAYER,ROW,COL
 ---------------------------------------------------------------------------
  1  0.1344E-01  0 -0.3653E-02  0 -0.2319E-02  0 -0.1095E-01  0  0.1044E-01
   ( 15,  1, 86)  ( 17,  1, 89)  (  8,  1, 12)  ( 11,  1, 64)  ( 11,  1, 64)
  0 -0.1732E-02  0 -0.1048E-02  0 -0.8772E-03  1  0.6613E-03
   ( 11,  1, 68)  ( 11,  1, 63)  ( 11,  1, 53)  ( 11,  1, 53)

 MAXIMUM RESIDUAL FOR EACH ITERATION (1 INDICATES THE FIRST INNER ITERATION):

    RESIDUAL       RESIDUAL       RESIDUAL       RESIDUAL       RESIDUAL    
   LAYER,ROW,COL  LAYER,ROW,COL  LAYER,ROW,COL  LAYER,ROW,COL  LAYER,ROW,COL
 ---------------------------------------------------------------------------
  1  0.1311E+06  0 -0.9148E+05  0 -0.8994E+05  0 -0.2905E+05  0  -5664.    
   ( 21,  1, 89)  ( 19,  1, 89)  ( 19,  1, 89)  ( 19,  1, 89)  ( 17,  1, 87)
  0   2865.      0   2616.      0   1080.      1   956.2    
   ( 22,  1, 87)  ( 22,  1, 87)  ( 22,  1, 87)  ( 22,  1, 87)


 FLOW MODEL IS TRANSIENT
 FLOW MODEL CONTAINS CONSTANT-HEAD CELLS


 MAXIMUM STEPSIZE DURING WHICH ANY PARTICLE CANNOT MOVE MORE THAN ONE CELL
 =  12.87    (WHEN MIN. R.F.=1)  AT K=  17, I=   1, J=  90

 MAXIMUM STEPSIZE WHICH MEETS STABILITY CRITERION OF THE ADVECTION TERM
 (FOR PURE FINITE-DIFFERENCE OPTION, MIXELM=0) 
 =  8.036    (WHEN MIN. R.F.=1)  AT K=  16, I=   1, J=  90


 TOTAL NUMBER OF POINT SOURCES/SINKS PRESENT IN THE FLOW MODEL =    30

 MAXIMUM STEPSIZE WHICH MEETS STABILITY CRITERION OF THE SINK & SOURCE TERM
 =  12.21    (WHEN MIN. R.F.=1)  AT K=  17, I=   1, J=  91

 MAXIMUM STEPSIZE WHICH MEETS STABILITY CRITERION OF THE DISPERSION TERM
 =  4.037    (WHEN MIN. R.F.=1)  AT K=  17, I=   1, J=  90
     1 CALLS TO GCG PACKAGE FOR TRANSPORT TIME STEP 247 IN FLOW TIME STEP   1 STRESS PERIOD   1
     8 TOTAL ITERATIONS
     1 CALLS TO GCG PACKAGE FOR TRANSPORT TIME STEP 247 IN FLOW TIME STEP   1 STRESS PERIOD   1
     9 TOTAL ITERATIONS
 
 SOLVING FOR HEAD 


     2 CALLS TO PCG ROUTINE FOR TIME STEP   1 IN STRESS PERIOD    1
     9 TOTAL ITERATIONS

 MAXIMUM HEAD CHANGE FOR EACH ITERATION (1 INDICATES THE FIRST INNER ITERATION):

    HEAD CHANGE    HEAD CHANGE    HEAD CHANGE    HEAD CHANGE    HEAD CHANGE 
   LAYER,ROW,COL  LAYER,ROW,COL  LAYER,ROW,COL  LAYER,ROW,COL  LAYER,ROW,COL
 ---------------------------------------------------------------------------
  1 -0.1349E-01  0  0.3704E-02  0  0.2415E-02  0 -0.8072E-02  0  0.8090E-02
   ( 15,  1, 86)  ( 17,  1, 89)  (  8,  1, 12)  ( 11,  1, 53)  ( 11,  1, 53)
  0 -0.1636E-02  0  0.1027E-02  0  0.7992E-03  1 -0.8898E-03
   (  8,  1, 44)  ( 11,  1, 69)  ( 11,  1, 70)  ( 11,  1, 70)

 MAXIMUM RESIDUAL FOR EACH ITERATION (1 INDICATES THE FIRST INNER ITERATION):

    RESIDUAL       RESIDUAL       RESIDUAL       RESIDUAL       RESIDUAL    
   LAYER,ROW,COL  LAYER,ROW,COL  LAYER,ROW,COL  LAYER,ROW,COL  LAYER,ROW,COL
 ---------------------------------------------------------------------------
  1 -0.1329E+06  0  0.9390E+05  0  0.9245E+05  0  0.2524E+05  0   5415.    
   ( 21,  1, 89)  ( 19,  1, 89)  ( 19,  1, 89)  ( 19,  1, 89)  ( 17,  1, 87)
  0  -2837.      0  -2522.      0  -978.2      1  -823.4    
   ( 22,  1, 87)  ( 22,  1, 87)  ( 22,  1, 87)  ( 22,  1, 87)


 FLOW MODEL IS TRANSIENT
 FLOW MODEL CONTAINS CONSTANT-HEAD CELLS


 MAXIMUM STEPSIZE DURING WHICH ANY PARTICLE CANNOT MOVE MORE THAN ONE CELL
 =  13.19    (WHEN MIN. R.F.=1)  AT K=  17, I=   1, J=  90

 MAXIMUM STEPSIZE WHICH MEETS STABILITY CRITERION OF THE ADVECTION TERM
 (FOR PURE FINITE-DIFFERENCE OPTION, MIXELM=0) 
 =  7.995    (WHEN MIN. R.F.=1)  AT K=  16, I=   1, J=  90


 TOTAL NUMBER OF POINT SOURCES/SINKS PRESENT IN THE FLOW MODEL =    30

 MAXIMUM STEPSIZE WHICH MEETS STABILITY CRITERION OF THE SINK & SOURCE TERM
 =  12.15    (WHEN MIN. R.F.=1)  AT K=  17, I=   1, J=  91

 MAXIMUM STEPSIZE WHICH MEETS STABILITY CRITERION OF THE DISPERSION TERM
 =  4.348    (WHEN MIN. R.F.=1)  AT K=  17, I=   1, J=  90
     1 CALLS TO GCG PACKAGE FOR TRANSPORT TIME STEP 248 IN FLOW TIME STEP   1 STRESS PERIOD   1
     9 TOTAL ITERATIONS
     1 CALLS TO GCG PACKAGE FOR TRANSPORT TIME STEP 248 IN FLOW TIME STEP   1 STRESS PERIOD   1
     8 TOTAL ITERATIONS
 
 SOLVING FOR HEAD 


     2 CALLS TO PCG ROUTINE FOR TIME STEP   1 IN STRESS PERIOD    1
     8 TOTAL ITERATIONS

 MAXIMUM HEAD CHANGE FOR EACH ITERATION (1 INDICATES THE FIRST INNER ITERATION):

    HEAD CHANGE    HEAD CHANGE    HEAD CHANGE    HEAD CHANGE    HEAD CHANGE 
   LAYER,ROW,COL  LAYER,ROW,COL  LAYER,ROW,COL  LAYER,ROW,COL  LAYER,ROW,COL
 ---------------------------------------------------------------------------
  1  0.1357E-01  0 -0.3703E-02  0 -0.2474E-02  0 -0.1039E-01  0  0.1001E-01
   ( 15,  1, 86)  ( 17,  1, 89)  (  8,  1, 12)  ( 11,  1, 64)  ( 11,  1, 65)
  0 -0.1745E-02  0 -0.9834E-03  1 -0.7318E-03
   ( 11,  1, 69)  ( 11,  1, 64)  ( 11,  1, 57)

 MAXIMUM RESIDUAL FOR EACH ITERATION (1 INDICATES THE FIRST INNER ITERATION):

    RESIDUAL       RESIDUAL       RESIDUAL       RESIDUAL       RESIDUAL    
   LAYER,ROW,COL  LAYER,ROW,COL  LAYER,ROW,COL  LAYER,ROW,COL  LAYER,ROW,COL
 ---------------------------------------------------------------------------
  1  0.1317E+06  0 -0.9248E+05  0 -0.9123E+05  0 -0.3000E+05  0  -5640.    
   ( 21,  1, 89)  ( 19,  1, 89)  ( 19,  1, 89)  ( 19,  1, 89)  ( 17,  1, 87)
  0   2853.      0   2605.      1   1924.    
   ( 22,  1, 87)  ( 22,  1, 87)  ( 22,  1, 87)


 FLOW MODEL IS TRANSIENT
 FLOW MODEL CONTAINS CONSTANT-HEAD CELLS


 MAXIMUM STEPSIZE DURING WHICH ANY PARTICLE CANNOT MOVE MORE THAN ONE CELL
 =  12.85    (WHEN MIN. R.F.=1)  AT K=  17, I=   1, J=  90

 MAXIMUM STEPSIZE WHICH MEETS STABILITY CRITERION OF THE ADVECTION TERM
 (FOR PURE FINITE-DIFFERENCE OPTION, MIXELM=0) 
 =  8.029    (WHEN MIN. R.F.=1)  AT K=  16, I=   1, J=  90


 TOTAL NUMBER OF POINT SOURCES/SINKS PRESENT IN THE FLOW MODEL =    30

 MAXIMUM STEPSIZE WHICH MEETS STABILITY CRITERION OF THE SINK & SOURCE TERM
 =  12.20    (WHEN MIN. R.F.=1)  AT K=  17, I=   1, J=  91

 MAXIMUM STEPSIZE WHICH MEETS STABILITY CRITERION OF THE DISPERSION TERM
 =  4.029    (WHEN MIN. R.F.=1)  AT K=  17, I=   1, J=  90
     1 CALLS TO GCG PACKAGE FOR TRANSPORT TIME STEP 249 IN FLOW TIME STEP   1 STRESS PERIOD   1
     8 TOTAL ITERATIONS
     1 CALLS TO GCG PACKAGE FOR TRANSPORT TIME STEP 249 IN FLOW TIME STEP   1 STRESS PERIOD   1
     9 TOTAL ITERATIONS
 
 SOLVING FOR HEAD 


     2 CALLS TO PCG ROUTINE FOR TIME STEP   1 IN STRESS PERIOD    1
     9 TOTAL ITERATIONS

 MAXIMUM HEAD CHANGE FOR EACH ITERATION (1 INDICATES THE FIRST INNER ITERATION):

    HEAD CHANGE    HEAD CHANGE    HEAD CHANGE    HEAD CHANGE    HEAD CHANGE 
   LAYER,ROW,COL  LAYER,ROW,COL  LAYER,ROW,COL  LAYER,ROW,COL  LAYER,ROW,COL
 ---------------------------------------------------------------------------
  1 -0.1366E-01  0 -0.8567E-02  0  0.3740E-02  0  0.1048E-01  0 -0.6767E-02
   ( 15,  1, 86)  ( 11,  1, 56)  (  7,  1, 12)  ( 11,  1, 56)  (  7,  1, 45)
  0  0.4557E-02  0  0.1292E-02  0  0.9685E-03  1 -0.7032E-03
   ( 11,  1, 64)  ( 11,  1, 55)  ( 11,  1, 70)  ( 11,  1, 70)

 MAXIMUM RESIDUAL FOR EACH ITERATION (1 INDICATES THE FIRST INNER ITERATION):

    RESIDUAL       RESIDUAL       RESIDUAL       RESIDUAL       RESIDUAL    
   LAYER,ROW,COL  LAYER,ROW,COL  LAYER,ROW,COL  LAYER,ROW,COL  LAYER,ROW,COL
 ---------------------------------------------------------------------------
  1 -0.1335E+06  0  0.9398E+05  0  0.9315E+05  0  0.7512E+05  0   6493.    
   ( 21,  1, 89)  ( 19,  1, 89)  ( 19,  1, 89)  ( 19,  1, 89)  ( 17,  1, 87)
  0  -3073.      0  -2613.      0  -1979.      1  -1714.    
   ( 17,  1, 88)  ( 22,  1, 87)  ( 22,  1, 87)  ( 22,  1, 87)


 FLOW MODEL IS TRANSIENT
 FLOW MODEL CONTAINS CONSTANT-HEAD CELLS


 MAXIMUM STEPSIZE DURING WHICH ANY PARTICLE CANNOT MOVE MORE THAN ONE CELL
 =  13.16    (WHEN MIN. R.F.=1)  AT K=  17, I=   1, J=  90

 MAXIMUM STEPSIZE WHICH MEETS STABILITY CRITERION OF THE ADVECTION TERM
 (FOR PURE FINITE-DIFFERENCE OPTION, MIXELM=0) 
 =  7.980    (WHEN MIN. R.F.=1)  AT K=  16, I=   1, J=  90


 TOTAL NUMBER OF POINT SOURCES/SINKS PRESENT IN THE FLOW MODEL =    30

 MAXIMUM STEPSIZE WHICH MEETS STABILITY CRITERION OF THE SINK & SOURCE TERM
 =  12.10    (WHEN MIN. R.F.=1)  AT K=  17, I=   1, J=  91

 MAXIMUM STEPSIZE WHICH MEETS STABILITY CRITERION OF THE DISPERSION TERM
 =  4.337    (WHEN MIN. R.F.=1)  AT K=  17, I=   1, J=  90
     1 CALLS TO GCG PACKAGE FOR TRANSPORT TIME STEP 250 IN FLOW TIME STEP   1 STRESS PERIOD   1
     8 TOTAL ITERATIONS
  MAXIMUM CONCENTRATION CHANGES FOR EACH ITERATION:
  MAX. CHANGE LAYER,ROW,COL MAX. CHANGE LAYER,ROW,COL MAX. CHANGE LAYER,ROW,COL MAX. CHANGE LAYER,ROW,COL MAX. CHANGE LAYER,ROW,COL
 ------------------------------------------------------------------------------------------------------------------------------------
   0.4874E-01 ( 20,  1, 87)  0.3265E-02 ( 19,  1, 87)  0.2125E-02 ( 18,  1, 87)  0.2117E-03 ( 16,  1, 88)  0.1439E-03 ( 16,  1, 89)
   0.2672E-04 ( 16,  1, 90)  0.3376E-05 ( 21,  1, 78)  0.8275E-06 ( 16,  1, 89)
     1 CALLS TO GCG PACKAGE FOR TRANSPORT TIME STEP 250 IN FLOW TIME STEP   1 STRESS PERIOD   1
     8 TOTAL ITERATIONS
  MAXIMUM CONCENTRATION CHANGES FOR EACH ITERATION:
  MAX. CHANGE LAYER,ROW,COL MAX. CHANGE LAYER,ROW,COL MAX. CHANGE LAYER,ROW,COL MAX. CHANGE LAYER,ROW,COL MAX. CHANGE LAYER,ROW,COL
 ------------------------------------------------------------------------------------------------------------------------------------
   0.5746E-01 ( 20,  1, 87)  0.5683E-02 ( 19,  1, 87)  0.2373E-02 ( 18,  1, 87)  0.6075E-03 ( 18,  1, 87)  0.1337E-03 ( 17,  1, 89)
   0.3890E-04 ( 17,  1, 90)  0.6749E-05 ( 17,  1, 90)  0.6589E-06 ( 18,  1, 90)



 >>>>>>>>>>>>>>>>>>>>>>>>>>>>>>>>>>>>>>>>>>>>>>>>>>>>>>>FOR COMPONENT NO. 01<<<<<<<<<<<<<<<<<<<<<<<<<<<<<<<<<<<<<<<<<<<<<<<<<<<<<<<


                                            -------------------------------------------
                                                      TRANSPORT STEP NO.  250
                                            -------------------------------------------

 TOTAL ELAPSED TIME SINCE BEGINNING OF SIMULATION =   12500.00    D   
 .....................................................................

                     CUMMULATIVE MASS BUDGETS AT END OF TRANSPORT STEP  250, TIME STEP    1, STRESS PERIOD    1
                     ------------------------------------------------------------------------------------------

                                                             IN                           OUT
                                                      ----------------             ----------------
                               CONSTANT CONCENTRATION:    0.000000                    0.000000    
                                        CONSTANT HEAD:   0.4949208E+09              -0.4947356E+09
                                                WELLS:    0.000000                    0.000000    
                                             RECHARGE:    0.000000                    0.000000    
                               1ST/0TH ORDER REACTION:    0.000000                    0.000000    
                                MASS STORAGE (SOLUTE):   0.6929063E+08              -0.6947590E+08
                            ---------------------------------------------------------------------------
                                              [TOTAL]:   0.5642120E+09 KG           -0.5642120E+09 KG  

                                                          NET (IN - OUT):   -79.59911    
                                                   DISCREPANCY (PERCENT):  -0.1410801E-04



 >>>>>>>>>>>>>>>>>>>>>>>>>>>>>>>>>>>>>>>>>>>>>>>>>>>>>>>FOR COMPONENT NO. 02<<<<<<<<<<<<<<<<<<<<<<<<<<<<<<<<<<<<<<<<<<<<<<<<<<<<<<<


                                            -------------------------------------------
                                                      TRANSPORT STEP NO.  250
                                            -------------------------------------------

 TOTAL ELAPSED TIME SINCE BEGINNING OF SIMULATION =   12500.00    D   
 .....................................................................

                     CUMMULATIVE MASS BUDGETS AT END OF TRANSPORT STEP  250, TIME STEP    1, STRESS PERIOD    1
                     ------------------------------------------------------------------------------------------

                                                             IN                           OUT
                                                      ----------------             ----------------
                               CONSTANT CONCENTRATION:    0.000000                    0.000000    
                                        CONSTANT HEAD:    0.000000                  -0.4576664E+11
                                                WELLS:    0.000000                    0.000000    
                                             RECHARGE:    0.000000                    0.000000    
                               1ST/0TH ORDER REACTION:   0.2068750E+12                0.000000    
                                MASS STORAGE (SOLUTE):   0.1084251E+11              -0.1719509E+12
                            ---------------------------------------------------------------------------
                                              [TOTAL]:   0.2177177E+12 KG           -0.2177177E+12 KG  

                                                          NET (IN - OUT):   -5466.300    
                                                   DISCREPANCY (PERCENT):  -0.2510728E-05
 
 SOLVING FOR HEAD 


     2 CALLS TO PCG ROUTINE FOR TIME STEP   1 IN STRESS PERIOD    1
     9 TOTAL ITERATIONS

 MAXIMUM HEAD CHANGE FOR EACH ITERATION (1 INDICATES THE FIRST INNER ITERATION):

    HEAD CHANGE    HEAD CHANGE    HEAD CHANGE    HEAD CHANGE    HEAD CHANGE 
   LAYER,ROW,COL  LAYER,ROW,COL  LAYER,ROW,COL  LAYER,ROW,COL  LAYER,ROW,COL
 ---------------------------------------------------------------------------
  1  0.1382E-01  0 -0.4206E-02  0 -0.4083E-02  0 -0.1300E-01  0  0.1309E-01
   ( 15,  1, 86)  ( 17,  1, 89)  (  8,  1, 12)  ( 11,  1, 51)  ( 11,  1, 51)
  0  0.1971E-02  0 -0.1247E-02  0 -0.5392E-03  1  0.4571E-03
   ( 11,  1, 64)  ( 11,  1, 63)  ( 11,  1, 40)  ( 11,  1, 64)

 MAXIMUM RESIDUAL FOR EACH ITERATION (1 INDICATES THE FIRST INNER ITERATION):

    RESIDUAL       RESIDUAL       RESIDUAL       RESIDUAL       RESIDUAL    
   LAYER,ROW,COL  LAYER,ROW,COL  LAYER,ROW,COL  LAYER,ROW,COL  LAYER,ROW,COL
 ---------------------------------------------------------------------------
  1  0.1340E+06  0 -0.9578E+05  0 -0.9503E+05  0 -0.3435E+05  0   5471.    
   ( 21,  1, 89)  ( 19,  1, 89)  ( 19,  1, 89)  ( 19,  1, 89)  ( 17,  1, 88)
  0   2718.      0   2522.      0   1286.      1   1150.    
   ( 22,  1, 87)  ( 22,  1, 87)  ( 22,  1, 87)  ( 22,  1, 87)


 FLOW MODEL IS TRANSIENT
 FLOW MODEL CONTAINS CONSTANT-HEAD CELLS


 MAXIMUM STEPSIZE DURING WHICH ANY PARTICLE CANNOT MOVE MORE THAN ONE CELL
 =  12.86    (WHEN MIN. R.F.=1)  AT K=  17, I=   1, J=  90

 MAXIMUM STEPSIZE WHICH MEETS STABILITY CRITERION OF THE ADVECTION TERM
 (FOR PURE FINITE-DIFFERENCE OPTION, MIXELM=0) 
 =  8.039    (WHEN MIN. R.F.=1)  AT K=  16, I=   1, J=  90


 TOTAL NUMBER OF POINT SOURCES/SINKS PRESENT IN THE FLOW MODEL =    30

 MAXIMUM STEPSIZE WHICH MEETS STABILITY CRITERION OF THE SINK & SOURCE TERM
 =  12.21    (WHEN MIN. R.F.=1)  AT K=  17, I=   1, J=  91

 MAXIMUM STEPSIZE WHICH MEETS STABILITY CRITERION OF THE DISPERSION TERM
 =  4.027    (WHEN MIN. R.F.=1)  AT K=  17, I=   1, J=  90
     1 CALLS TO GCG PACKAGE FOR TRANSPORT TIME STEP 251 IN FLOW TIME STEP   1 STRESS PERIOD   1
     8 TOTAL ITERATIONS
     1 CALLS TO GCG PACKAGE FOR TRANSPORT TIME STEP 251 IN FLOW TIME STEP   1 STRESS PERIOD   1
     9 TOTAL ITERATIONS
 
 SOLVING FOR HEAD 


     2 CALLS TO PCG ROUTINE FOR TIME STEP   1 IN STRESS PERIOD    1
     8 TOTAL ITERATIONS

 MAXIMUM HEAD CHANGE FOR EACH ITERATION (1 INDICATES THE FIRST INNER ITERATION):

    HEAD CHANGE    HEAD CHANGE    HEAD CHANGE    HEAD CHANGE    HEAD CHANGE 
   LAYER,ROW,COL  LAYER,ROW,COL  LAYER,ROW,COL  LAYER,ROW,COL  LAYER,ROW,COL
 ---------------------------------------------------------------------------
  1 -0.1356E-01  0  0.3951E-02  0  0.3467E-02  0  0.8635E-02  0 -0.8799E-02
   ( 15,  1, 86)  ( 17,  1, 89)  (  8,  1, 12)  (  9,  1, 45)  (  9,  1, 45)
  0  0.1531E-02  0  0.9609E-03  1 -0.6249E-03
   ( 11,  1, 67)  ( 11,  1, 53)  ( 11,  1, 53)

 MAXIMUM RESIDUAL FOR EACH ITERATION (1 INDICATES THE FIRST INNER ITERATION):

    RESIDUAL       RESIDUAL       RESIDUAL       RESIDUAL       RESIDUAL    
   LAYER,ROW,COL  LAYER,ROW,COL  LAYER,ROW,COL  LAYER,ROW,COL  LAYER,ROW,COL
 ---------------------------------------------------------------------------
  1 -0.1312E+06  0  0.9231E+05  0  0.9148E+05  0  0.3000E+05  0   5823.    
   ( 21,  1, 89)  ( 19,  1, 89)  ( 19,  1, 89)  ( 19,  1, 89)  ( 17,  1, 87)
  0  -2882.      0  -2569.      1  -2081.    
   ( 22,  1, 87)  ( 22,  1, 87)  ( 22,  1, 87)


 FLOW MODEL IS TRANSIENT
 FLOW MODEL CONTAINS CONSTANT-HEAD CELLS


 MAXIMUM STEPSIZE DURING WHICH ANY PARTICLE CANNOT MOVE MORE THAN ONE CELL
 =  13.24    (WHEN MIN. R.F.=1)  AT K=  17, I=   1, J=  90

 MAXIMUM STEPSIZE WHICH MEETS STABILITY CRITERION OF THE ADVECTION TERM
 (FOR PURE FINITE-DIFFERENCE OPTION, MIXELM=0) 
 =  8.008    (WHEN MIN. R.F.=1)  AT K=  16, I=   1, J=  90


 TOTAL NUMBER OF POINT SOURCES/SINKS PRESENT IN THE FLOW MODEL =    30

 MAXIMUM STEPSIZE WHICH MEETS STABILITY CRITERION OF THE SINK & SOURCE TERM
 =  12.18    (WHEN MIN. R.F.=1)  AT K=  17, I=   1, J=  91

 MAXIMUM STEPSIZE WHICH MEETS STABILITY CRITERION OF THE DISPERSION TERM
 =  4.375    (WHEN MIN. R.F.=1)  AT K=  17, I=   1, J=  90
     1 CALLS TO GCG PACKAGE FOR TRANSPORT TIME STEP 252 IN FLOW TIME STEP   1 STRESS PERIOD   1
     8 TOTAL ITERATIONS
     1 CALLS TO GCG PACKAGE FOR TRANSPORT TIME STEP 252 IN FLOW TIME STEP   1 STRESS PERIOD   1
     8 TOTAL ITERATIONS
 
 SOLVING FOR HEAD 


     2 CALLS TO PCG ROUTINE FOR TIME STEP   1 IN STRESS PERIOD    1
     9 TOTAL ITERATIONS

 MAXIMUM HEAD CHANGE FOR EACH ITERATION (1 INDICATES THE FIRST INNER ITERATION):

    HEAD CHANGE    HEAD CHANGE    HEAD CHANGE    HEAD CHANGE    HEAD CHANGE 
   LAYER,ROW,COL  LAYER,ROW,COL  LAYER,ROW,COL  LAYER,ROW,COL  LAYER,ROW,COL
 ---------------------------------------------------------------------------
  1  0.1369E-01  0 -0.8947E-02  0 -0.3702E-02  0  0.1333E-01  0 -0.8550E-02
   ( 15,  1, 86)  ( 11,  1, 53)  (  8,  1, 12)  ( 11,  1, 52)  ( 11,  1, 52)
  0 -0.2368E-02  0  0.1073E-02  0 -0.8941E-03  1  0.7322E-03
   (  8,  1, 45)  (  9,  1, 44)  ( 11,  1, 63)  ( 11,  1, 63)

 MAXIMUM RESIDUAL FOR EACH ITERATION (1 INDICATES THE FIRST INNER ITERATION):

    RESIDUAL       RESIDUAL       RESIDUAL       RESIDUAL       RESIDUAL    
   LAYER,ROW,COL  LAYER,ROW,COL  LAYER,ROW,COL  LAYER,ROW,COL  LAYER,ROW,COL
 ---------------------------------------------------------------------------
  1  0.1358E+06  0 -0.9641E+05  0 -0.9553E+05  0 -0.7470E+05  0  -5958.    
   ( 21,  1, 89)  ( 19,  1, 89)  ( 19,  1, 89)  ( 19,  1, 89)  ( 17,  1, 87)
  0   3061.      0   2578.      0   1122.      1   990.7    
   ( 17,  1, 88)  ( 22,  1, 87)  ( 22,  1, 87)  ( 22,  1, 87)


 FLOW MODEL IS TRANSIENT
 FLOW MODEL CONTAINS CONSTANT-HEAD CELLS


 MAXIMUM STEPSIZE DURING WHICH ANY PARTICLE CANNOT MOVE MORE THAN ONE CELL
 =  12.90    (WHEN MIN. R.F.=1)  AT K=  17, I=   1, J=  90

 MAXIMUM STEPSIZE WHICH MEETS STABILITY CRITERION OF THE ADVECTION TERM
 (FOR PURE FINITE-DIFFERENCE OPTION, MIXELM=0) 
 =  8.059    (WHEN MIN. R.F.=1)  AT K=  16, I=   1, J=  90


 TOTAL NUMBER OF POINT SOURCES/SINKS PRESENT IN THE FLOW MODEL =    30

 MAXIMUM STEPSIZE WHICH MEETS STABILITY CRITERION OF THE SINK & SOURCE TERM
 =  12.28    (WHEN MIN. R.F.=1)  AT K=  17, I=   1, J=  91

 MAXIMUM STEPSIZE WHICH MEETS STABILITY CRITERION OF THE DISPERSION TERM
 =  4.045    (WHEN MIN. R.F.=1)  AT K=  17, I=   1, J=  90
     1 CALLS TO GCG PACKAGE FOR TRANSPORT TIME STEP 253 IN FLOW TIME STEP   1 STRESS PERIOD   1
     8 TOTAL ITERATIONS
     1 CALLS TO GCG PACKAGE FOR TRANSPORT TIME STEP 253 IN FLOW TIME STEP   1 STRESS PERIOD   1
     8 TOTAL ITERATIONS
 
 SOLVING FOR HEAD 


     2 CALLS TO PCG ROUTINE FOR TIME STEP   1 IN STRESS PERIOD    1
     8 TOTAL ITERATIONS

 MAXIMUM HEAD CHANGE FOR EACH ITERATION (1 INDICATES THE FIRST INNER ITERATION):

    HEAD CHANGE    HEAD CHANGE    HEAD CHANGE    HEAD CHANGE    HEAD CHANGE 
   LAYER,ROW,COL  LAYER,ROW,COL  LAYER,ROW,COL  LAYER,ROW,COL  LAYER,ROW,COL
 ---------------------------------------------------------------------------
  1 -0.1369E-01  0  0.4086E-02  0  0.4130E-02  0 -0.9028E-02  0  0.9349E-02
   ( 15,  1, 86)  ( 17,  1, 89)  (  8,  1, 12)  ( 11,  1, 62)  ( 11,  1, 62)
  0  0.2009E-02  0  0.7619E-03  1 -0.4022E-03
   ( 11,  1, 69)  ( 11,  1, 57)  ( 11,  1, 70)

 MAXIMUM RESIDUAL FOR EACH ITERATION (1 INDICATES THE FIRST INNER ITERATION):

    RESIDUAL       RESIDUAL       RESIDUAL       RESIDUAL       RESIDUAL    
   LAYER,ROW,COL  LAYER,ROW,COL  LAYER,ROW,COL  LAYER,ROW,COL  LAYER,ROW,COL
 ---------------------------------------------------------------------------
  1 -0.1357E+06  0  0.9622E+05  0  0.9546E+05  0  0.1836E+05  0  -4645.    
   ( 21,  1, 89)  ( 19,  1, 89)  ( 19,  1, 89)  ( 19,  1, 89)  ( 17,  1, 88)
  0  -2803.      0  -2433.      1  -2050.    
   ( 22,  1, 87)  ( 22,  1, 87)  ( 22,  1, 87)


 FLOW MODEL IS TRANSIENT
 FLOW MODEL CONTAINS CONSTANT-HEAD CELLS


 MAXIMUM STEPSIZE DURING WHICH ANY PARTICLE CANNOT MOVE MORE THAN ONE CELL
 =  13.25    (WHEN MIN. R.F.=1)  AT K=  17, I=   1, J=  90

 MAXIMUM STEPSIZE WHICH MEETS STABILITY CRITERION OF THE ADVECTION TERM
 (FOR PURE FINITE-DIFFERENCE OPTION, MIXELM=0) 
 =  8.015    (WHEN MIN. R.F.=1)  AT K=  16, I=   1, J=  90


 TOTAL NUMBER OF POINT SOURCES/SINKS PRESENT IN THE FLOW MODEL =    30

 MAXIMUM STEPSIZE WHICH MEETS STABILITY CRITERION OF THE SINK & SOURCE TERM
 =  12.20    (WHEN MIN. R.F.=1)  AT K=  17, I=   1, J=  91

 MAXIMUM STEPSIZE WHICH MEETS STABILITY CRITERION OF THE DISPERSION TERM
 =  4.385    (WHEN MIN. R.F.=1)  AT K=  17, I=   1, J=  90
     1 CALLS TO GCG PACKAGE FOR TRANSPORT TIME STEP 254 IN FLOW TIME STEP   1 STRESS PERIOD   1
    10 TOTAL ITERATIONS
     1 CALLS TO GCG PACKAGE FOR TRANSPORT TIME STEP 254 IN FLOW TIME STEP   1 STRESS PERIOD   1
     8 TOTAL ITERATIONS
 
 SOLVING FOR HEAD 


     2 CALLS TO PCG ROUTINE FOR TIME STEP   1 IN STRESS PERIOD    1
     9 TOTAL ITERATIONS

 MAXIMUM HEAD CHANGE FOR EACH ITERATION (1 INDICATES THE FIRST INNER ITERATION):

    HEAD CHANGE    HEAD CHANGE    HEAD CHANGE    HEAD CHANGE    HEAD CHANGE 
   LAYER,ROW,COL  LAYER,ROW,COL  LAYER,ROW,COL  LAYER,ROW,COL  LAYER,ROW,COL
 ---------------------------------------------------------------------------
  1  0.1366E-01  0 -0.4137E-02  0 -0.3652E-02  0  0.9996E-02  0 -0.8225E-02
   ( 15,  1, 86)  ( 17,  1, 89)  (  8,  1, 12)  (  6,  1, 47)  (  8,  1, 47)
  0  0.3484E-02  0 -0.1500E-02  0 -0.8499E-03  1  0.6375E-03
   ( 11,  1, 64)  ( 11,  1, 64)  ( 11,  1, 52)  ( 11,  1, 52)

 MAXIMUM RESIDUAL FOR EACH ITERATION (1 INDICATES THE FIRST INNER ITERATION):

    RESIDUAL       RESIDUAL       RESIDUAL       RESIDUAL       RESIDUAL    
   LAYER,ROW,COL  LAYER,ROW,COL  LAYER,ROW,COL  LAYER,ROW,COL  LAYER,ROW,COL
 ---------------------------------------------------------------------------
  1  0.1371E+06  0 -0.9764E+05  0 -0.9672E+05  0 -0.6996E+05  0  -6113.    
   ( 21,  1, 89)  ( 19,  1, 89)  ( 19,  1, 89)  ( 19,  1, 89)  ( 17,  1, 87)
  0   2973.      0   2586.      0   1433.      1   1277.    
   ( 17,  1, 88)  ( 22,  1, 87)  ( 22,  1, 87)  ( 22,  1, 87)


 FLOW MODEL IS TRANSIENT
 FLOW MODEL CONTAINS CONSTANT-HEAD CELLS


 MAXIMUM STEPSIZE DURING WHICH ANY PARTICLE CANNOT MOVE MORE THAN ONE CELL
 =  12.89    (WHEN MIN. R.F.=1)  AT K=  17, I=   1, J=  90

 MAXIMUM STEPSIZE WHICH MEETS STABILITY CRITERION OF THE ADVECTION TERM
 (FOR PURE FINITE-DIFFERENCE OPTION, MIXELM=0) 
 =  8.057    (WHEN MIN. R.F.=1)  AT K=  16, I=   1, J=  90


 TOTAL NUMBER OF POINT SOURCES/SINKS PRESENT IN THE FLOW MODEL =    30

 MAXIMUM STEPSIZE WHICH MEETS STABILITY CRITERION OF THE SINK & SOURCE TERM
 =  12.27    (WHEN MIN. R.F.=1)  AT K=  17, I=   1, J=  91

 MAXIMUM STEPSIZE WHICH MEETS STABILITY CRITERION OF THE DISPERSION TERM
 =  4.040    (WHEN MIN. R.F.=1)  AT K=  17, I=   1, J=  90
     1 CALLS TO GCG PACKAGE FOR TRANSPORT TIME STEP 255 IN FLOW TIME STEP   1 STRESS PERIOD   1
     8 TOTAL ITERATIONS
  MAXIMUM CONCENTRATION CHANGES FOR EACH ITERATION:
  MAX. CHANGE LAYER,ROW,COL MAX. CHANGE LAYER,ROW,COL MAX. CHANGE LAYER,ROW,COL MAX. CHANGE LAYER,ROW,COL MAX. CHANGE LAYER,ROW,COL
 ------------------------------------------------------------------------------------------------------------------------------------
   0.5197E-01 ( 20,  1, 87)  0.4304E-02 ( 19,  1, 89)  0.2081E-02 ( 17,  1, 86)  0.5047E-03 ( 20,  1, 89)  0.9526E-04 ( 16,  1, 89)
   0.2103E-04 ( 20,  1, 89)  0.2273E-04 ( 16,  1, 90)  0.6425E-06 ( 17,  1, 90)
     1 CALLS TO GCG PACKAGE FOR TRANSPORT TIME STEP 255 IN FLOW TIME STEP   1 STRESS PERIOD   1
     9 TOTAL ITERATIONS
  MAXIMUM CONCENTRATION CHANGES FOR EACH ITERATION:
  MAX. CHANGE LAYER,ROW,COL MAX. CHANGE LAYER,ROW,COL MAX. CHANGE LAYER,ROW,COL MAX. CHANGE LAYER,ROW,COL MAX. CHANGE LAYER,ROW,COL
 ------------------------------------------------------------------------------------------------------------------------------------
   0.6240E-01 ( 20,  1, 87)  0.4654E-02 ( 19,  1, 86)  0.2288E-02 ( 19,  1, 89)  0.9484E-03 ( 19,  1, 89)  0.1944E-03 ( 16,  1, 89)
   0.1045E-03 ( 16,  1, 89)  0.1692E-04 ( 17,  1, 90)  0.1002E-05 ( 17,  1, 90)  0.1580E-06 ( 17,  1, 90)
 
 SOLVING FOR HEAD 


     2 CALLS TO PCG ROUTINE FOR TIME STEP   1 IN STRESS PERIOD    1
     8 TOTAL ITERATIONS

 MAXIMUM HEAD CHANGE FOR EACH ITERATION (1 INDICATES THE FIRST INNER ITERATION):

    HEAD CHANGE    HEAD CHANGE    HEAD CHANGE    HEAD CHANGE    HEAD CHANGE 
   LAYER,ROW,COL  LAYER,ROW,COL  LAYER,ROW,COL  LAYER,ROW,COL  LAYER,ROW,COL
 ---------------------------------------------------------------------------
  1 -0.1378E-01  0 -0.5148E-02  0  0.5559E-02  0 -0.1109E-01  0  0.1084E-01
   ( 15,  1, 86)  (  7,  1, 12)  (  8,  1, 12)  ( 11,  1, 51)  ( 11,  1, 51)
  0  0.2181E-02  0  0.7290E-03  1  0.5086E-03
   ( 11,  1, 67)  ( 11,  1, 37)  (  8,  1, 44)

 MAXIMUM RESIDUAL FOR EACH ITERATION (1 INDICATES THE FIRST INNER ITERATION):

    RESIDUAL       RESIDUAL       RESIDUAL       RESIDUAL       RESIDUAL    
   LAYER,ROW,COL  LAYER,ROW,COL  LAYER,ROW,COL  LAYER,ROW,COL  LAYER,ROW,COL
 ---------------------------------------------------------------------------
  1 -0.1372E+06  0  0.9725E+05  0  0.9677E+05  0  0.2646E+05  0  -5388.    
   ( 21,  1, 89)  ( 19,  1, 89)  ( 19,  1, 89)  ( 19,  1, 89)  ( 17,  1, 88)
  0  -2819.      0  -2534.      1  -2035.    
   ( 22,  1, 87)  ( 22,  1, 87)  ( 22,  1, 87)


 FLOW MODEL IS TRANSIENT
 FLOW MODEL CONTAINS CONSTANT-HEAD CELLS


 MAXIMUM STEPSIZE DURING WHICH ANY PARTICLE CANNOT MOVE MORE THAN ONE CELL
 =  13.25    (WHEN MIN. R.F.=1)  AT K=  17, I=   1, J=  90

 MAXIMUM STEPSIZE WHICH MEETS STABILITY CRITERION OF THE ADVECTION TERM
 (FOR PURE FINITE-DIFFERENCE OPTION, MIXELM=0) 
 =  8.012    (WHEN MIN. R.F.=1)  AT K=  16, I=   1, J=  90


 TOTAL NUMBER OF POINT SOURCES/SINKS PRESENT IN THE FLOW MODEL =    30

 MAXIMUM STEPSIZE WHICH MEETS STABILITY CRITERION OF THE SINK & SOURCE TERM
 =  12.19    (WHEN MIN. R.F.=1)  AT K=  17, I=   1, J=  91

 MAXIMUM STEPSIZE WHICH MEETS STABILITY CRITERION OF THE DISPERSION TERM
 =  4.386    (WHEN MIN. R.F.=1)  AT K=  17, I=   1, J=  90
     1 CALLS TO GCG PACKAGE FOR TRANSPORT TIME STEP 256 IN FLOW TIME STEP   1 STRESS PERIOD   1
     7 TOTAL ITERATIONS
     1 CALLS TO GCG PACKAGE FOR TRANSPORT TIME STEP 256 IN FLOW TIME STEP   1 STRESS PERIOD   1
     8 TOTAL ITERATIONS
 
 SOLVING FOR HEAD 


     2 CALLS TO PCG ROUTINE FOR TIME STEP   1 IN STRESS PERIOD    1
     9 TOTAL ITERATIONS

 MAXIMUM HEAD CHANGE FOR EACH ITERATION (1 INDICATES THE FIRST INNER ITERATION):

    HEAD CHANGE    HEAD CHANGE    HEAD CHANGE    HEAD CHANGE    HEAD CHANGE 
   LAYER,ROW,COL  LAYER,ROW,COL  LAYER,ROW,COL  LAYER,ROW,COL  LAYER,ROW,COL
 ---------------------------------------------------------------------------
  1  0.1369E-01  0  0.7959E-02  0 -0.3136E-02  0 -0.9544E-02  0  0.6598E-02
   ( 15,  1, 86)  (  5,  1, 43)  (  7,  1, 12)  (  8,  1, 45)  (  9,  1, 47)
  0 -0.3991E-02  0 -0.1439E-02  0 -0.9946E-03  1  0.7783E-03
   ( 11,  1, 69)  ( 11,  1, 50)  ( 11,  1, 64)  ( 11,  1, 63)

 MAXIMUM RESIDUAL FOR EACH ITERATION (1 INDICATES THE FIRST INNER ITERATION):

    RESIDUAL       RESIDUAL       RESIDUAL       RESIDUAL       RESIDUAL    
   LAYER,ROW,COL  LAYER,ROW,COL  LAYER,ROW,COL  LAYER,ROW,COL  LAYER,ROW,COL
 ---------------------------------------------------------------------------
  1  0.1379E+06  0 -0.9842E+05  0 -0.9729E+05  0 -0.7929E+05  0   6263.    
   ( 21,  1, 89)  ( 19,  1, 89)  ( 19,  1, 89)  ( 19,  1, 89)  ( 17,  1, 88)
  0   3103.      0   2574.      0   1345.      1   1192.    
   ( 17,  1, 88)  ( 22,  1, 87)  ( 22,  1, 87)  ( 22,  1, 87)


 FLOW MODEL IS TRANSIENT
 FLOW MODEL CONTAINS CONSTANT-HEAD CELLS


 MAXIMUM STEPSIZE DURING WHICH ANY PARTICLE CANNOT MOVE MORE THAN ONE CELL
 =  12.88    (WHEN MIN. R.F.=1)  AT K=  17, I=   1, J=  90

 MAXIMUM STEPSIZE WHICH MEETS STABILITY CRITERION OF THE ADVECTION TERM
 (FOR PURE FINITE-DIFFERENCE OPTION, MIXELM=0) 
 =  8.055    (WHEN MIN. R.F.=1)  AT K=  16, I=   1, J=  90


 TOTAL NUMBER OF POINT SOURCES/SINKS PRESENT IN THE FLOW MODEL =    30

 MAXIMUM STEPSIZE WHICH MEETS STABILITY CRITERION OF THE SINK & SOURCE TERM
 =  12.25    (WHEN MIN. R.F.=1)  AT K=  17, I=   1, J=  91

 MAXIMUM STEPSIZE WHICH MEETS STABILITY CRITERION OF THE DISPERSION TERM
 =  4.036    (WHEN MIN. R.F.=1)  AT K=  17, I=   1, J=  90
     1 CALLS TO GCG PACKAGE FOR TRANSPORT TIME STEP 257 IN FLOW TIME STEP   1 STRESS PERIOD   1
     8 TOTAL ITERATIONS
     1 CALLS TO GCG PACKAGE FOR TRANSPORT TIME STEP 257 IN FLOW TIME STEP   1 STRESS PERIOD   1
     8 TOTAL ITERATIONS
 
 SOLVING FOR HEAD 


     2 CALLS TO PCG ROUTINE FOR TIME STEP   1 IN STRESS PERIOD    1
     9 TOTAL ITERATIONS

 MAXIMUM HEAD CHANGE FOR EACH ITERATION (1 INDICATES THE FIRST INNER ITERATION):

    HEAD CHANGE    HEAD CHANGE    HEAD CHANGE    HEAD CHANGE    HEAD CHANGE 
   LAYER,ROW,COL  LAYER,ROW,COL  LAYER,ROW,COL  LAYER,ROW,COL  LAYER,ROW,COL
 ---------------------------------------------------------------------------
  1 -0.1375E-01  0 -0.4738E-02  0  0.5195E-02  0 -0.8662E-02  0 -0.1043E-01
   ( 15,  1, 86)  (  7,  1, 12)  (  8,  1, 12)  ( 11,  1, 63)  ( 11,  1, 54)
  0  0.2401E-02  0  0.1049E-02  0  0.6287E-03  1 -0.3278E-03
   ( 11,  1, 54)  ( 11,  1, 70)  ( 11,  1, 49)  ( 11,  1, 70)

 MAXIMUM RESIDUAL FOR EACH ITERATION (1 INDICATES THE FIRST INNER ITERATION):

    RESIDUAL       RESIDUAL       RESIDUAL       RESIDUAL       RESIDUAL    
   LAYER,ROW,COL  LAYER,ROW,COL  LAYER,ROW,COL  LAYER,ROW,COL  LAYER,ROW,COL
 ---------------------------------------------------------------------------
  1 -0.1371E+06  0  0.9725E+05  0  0.9670E+05  0  0.2064E+05  0  -5032.    
   ( 21,  1, 89)  ( 19,  1, 89)  ( 19,  1, 89)  ( 19,  1, 89)  ( 17,  1, 88)
  0  -2793.      0  -2391.      0  -653.3      1  -551.2    
   ( 22,  1, 87)  ( 22,  1, 87)  ( 22,  1, 87)  ( 22,  1, 87)


 FLOW MODEL IS TRANSIENT
 FLOW MODEL CONTAINS CONSTANT-HEAD CELLS


 MAXIMUM STEPSIZE DURING WHICH ANY PARTICLE CANNOT MOVE MORE THAN ONE CELL
 =  13.24    (WHEN MIN. R.F.=1)  AT K=  17, I=   1, J=  90

 MAXIMUM STEPSIZE WHICH MEETS STABILITY CRITERION OF THE ADVECTION TERM
 (FOR PURE FINITE-DIFFERENCE OPTION, MIXELM=0) 
 =  8.009    (WHEN MIN. R.F.=1)  AT K=  16, I=   1, J=  90


 TOTAL NUMBER OF POINT SOURCES/SINKS PRESENT IN THE FLOW MODEL =    30

 MAXIMUM STEPSIZE WHICH MEETS STABILITY CRITERION OF THE SINK & SOURCE TERM
 =  12.18    (WHEN MIN. R.F.=1)  AT K=  17, I=   1, J=  91

 MAXIMUM STEPSIZE WHICH MEETS STABILITY CRITERION OF THE DISPERSION TERM
 =  4.388    (WHEN MIN. R.F.=1)  AT K=  17, I=   1, J=  90
     1 CALLS TO GCG PACKAGE FOR TRANSPORT TIME STEP 258 IN FLOW TIME STEP   1 STRESS PERIOD   1
     9 TOTAL ITERATIONS
     1 CALLS TO GCG PACKAGE FOR TRANSPORT TIME STEP 258 IN FLOW TIME STEP   1 STRESS PERIOD   1
     8 TOTAL ITERATIONS
 
 SOLVING FOR HEAD 


     2 CALLS TO PCG ROUTINE FOR TIME STEP   1 IN STRESS PERIOD    1
    10 TOTAL ITERATIONS

 MAXIMUM HEAD CHANGE FOR EACH ITERATION (1 INDICATES THE FIRST INNER ITERATION):

    HEAD CHANGE    HEAD CHANGE    HEAD CHANGE    HEAD CHANGE    HEAD CHANGE 
   LAYER,ROW,COL  LAYER,ROW,COL  LAYER,ROW,COL  LAYER,ROW,COL  LAYER,ROW,COL
 ---------------------------------------------------------------------------
  1  0.1332E-01  0 -0.3833E-02  0 -0.1202E-01  0  0.7976E-02  0  0.3542E-02
   ( 15,  1, 86)  ( 17,  1, 89)  ( 11,  1, 67)  ( 11,  1, 67)  ( 11,  1, 67)
  0  0.1632E-02  0 -0.1180E-02  0 -0.1020E-02  0  0.7445E-03  1  0.2906E-03
   ( 11,  1, 39)  ( 11,  1, 67)  ( 11,  1, 60)  ( 11,  1, 67)  ( 11,  1, 70)

 MAXIMUM RESIDUAL FOR EACH ITERATION (1 INDICATES THE FIRST INNER ITERATION):

    RESIDUAL       RESIDUAL       RESIDUAL       RESIDUAL       RESIDUAL    
   LAYER,ROW,COL  LAYER,ROW,COL  LAYER,ROW,COL  LAYER,ROW,COL  LAYER,ROW,COL
 ---------------------------------------------------------------------------
  1  0.1359E+06  0 -0.9602E+05  0 -0.2579E+05  0  -9861.      0  -5517.    
   ( 21,  1, 89)  ( 19,  1, 89)  ( 19,  1, 89)  ( 17,  1, 87)  ( 17,  1, 87)
  0   2842.      0   2528.      0   952.7      0   389.1      1   342.8    
   ( 22,  1, 87)  ( 22,  1, 87)  ( 22,  1, 87)  ( 22,  1, 87)  ( 22,  1, 87)


 FLOW MODEL IS TRANSIENT
 FLOW MODEL CONTAINS CONSTANT-HEAD CELLS


 MAXIMUM STEPSIZE DURING WHICH ANY PARTICLE CANNOT MOVE MORE THAN ONE CELL
 =  12.84    (WHEN MIN. R.F.=1)  AT K=  17, I=   1, J=  90

 MAXIMUM STEPSIZE WHICH MEETS STABILITY CRITERION OF THE ADVECTION TERM
 (FOR PURE FINITE-DIFFERENCE OPTION, MIXELM=0) 
 =  8.034    (WHEN MIN. R.F.=1)  AT K=  16, I=   1, J=  90


 TOTAL NUMBER OF POINT SOURCES/SINKS PRESENT IN THE FLOW MODEL =    30

 MAXIMUM STEPSIZE WHICH MEETS STABILITY CRITERION OF THE SINK & SOURCE TERM
 =  12.20    (WHEN MIN. R.F.=1)  AT K=  17, I=   1, J=  91

 MAXIMUM STEPSIZE WHICH MEETS STABILITY CRITERION OF THE DISPERSION TERM
 =  4.024    (WHEN MIN. R.F.=1)  AT K=  17, I=   1, J=  90
     1 CALLS TO GCG PACKAGE FOR TRANSPORT TIME STEP 259 IN FLOW TIME STEP   1 STRESS PERIOD   1
     8 TOTAL ITERATIONS
     1 CALLS TO GCG PACKAGE FOR TRANSPORT TIME STEP 259 IN FLOW TIME STEP   1 STRESS PERIOD   1
     8 TOTAL ITERATIONS
 
 SOLVING FOR HEAD 


     2 CALLS TO PCG ROUTINE FOR TIME STEP   1 IN STRESS PERIOD    1
     8 TOTAL ITERATIONS

 MAXIMUM HEAD CHANGE FOR EACH ITERATION (1 INDICATES THE FIRST INNER ITERATION):

    HEAD CHANGE    HEAD CHANGE    HEAD CHANGE    HEAD CHANGE    HEAD CHANGE 
   LAYER,ROW,COL  LAYER,ROW,COL  LAYER,ROW,COL  LAYER,ROW,COL  LAYER,ROW,COL
 ---------------------------------------------------------------------------
  1 -0.1338E-01  0  0.3664E-02  0  0.2964E-02  0  0.7744E-02  0 -0.9781E-02
   ( 15,  1, 86)  ( 17,  1, 89)  (  8,  1, 12)  ( 11,  1, 55)  ( 11,  1, 55)
  0  0.2160E-02  0  0.9249E-03  1 -0.6484E-03
   ( 11,  1, 55)  ( 11,  1, 55)  ( 11,  1, 55)

 MAXIMUM RESIDUAL FOR EACH ITERATION (1 INDICATES THE FIRST INNER ITERATION):

    RESIDUAL       RESIDUAL       RESIDUAL       RESIDUAL       RESIDUAL    
   LAYER,ROW,COL  LAYER,ROW,COL  LAYER,ROW,COL  LAYER,ROW,COL  LAYER,ROW,COL
 ---------------------------------------------------------------------------
  1 -0.1340E+06  0  0.9420E+05  0  0.9319E+05  0  0.1552E+05  0   4568.    
   ( 21,  1, 89)  ( 19,  1, 89)  ( 19,  1, 89)  ( 19,  1, 89)  ( 17,  1, 87)
  0  -2812.      0  -2235.      1  -1965.    
   ( 22,  1, 87)  ( 22,  1, 87)  ( 22,  1, 87)


 FLOW MODEL IS TRANSIENT
 FLOW MODEL CONTAINS CONSTANT-HEAD CELLS


 MAXIMUM STEPSIZE DURING WHICH ANY PARTICLE CANNOT MOVE MORE THAN ONE CELL
 =  13.24    (WHEN MIN. R.F.=1)  AT K=  17, I=   1, J=  90

 MAXIMUM STEPSIZE WHICH MEETS STABILITY CRITERION OF THE ADVECTION TERM
 (FOR PURE FINITE-DIFFERENCE OPTION, MIXELM=0) 
 =  8.015    (WHEN MIN. R.F.=1)  AT K=  16, I=   1, J=  90


 TOTAL NUMBER OF POINT SOURCES/SINKS PRESENT IN THE FLOW MODEL =    30

 MAXIMUM STEPSIZE WHICH MEETS STABILITY CRITERION OF THE SINK & SOURCE TERM
 =  12.19    (WHEN MIN. R.F.=1)  AT K=  17, I=   1, J=  91

 MAXIMUM STEPSIZE WHICH MEETS STABILITY CRITERION OF THE DISPERSION TERM
 =  4.378    (WHEN MIN. R.F.=1)  AT K=  17, I=   1, J=  90
     1 CALLS TO GCG PACKAGE FOR TRANSPORT TIME STEP 260 IN FLOW TIME STEP   1 STRESS PERIOD   1
    10 TOTAL ITERATIONS
  MAXIMUM CONCENTRATION CHANGES FOR EACH ITERATION:
  MAX. CHANGE LAYER,ROW,COL MAX. CHANGE LAYER,ROW,COL MAX. CHANGE LAYER,ROW,COL MAX. CHANGE LAYER,ROW,COL MAX. CHANGE LAYER,ROW,COL
 ------------------------------------------------------------------------------------------------------------------------------------
   0.4904E-01 ( 20,  1, 87)  0.3343E-02 ( 19,  1, 87)  0.2223E-02 ( 18,  1, 87)  0.2193E-03 ( 16,  1, 88)  0.1452E-03 ( 16,  1, 89)
   0.2870E-04 ( 16,  1, 90)  0.3464E-05 ( 21,  1, 78)  0.3193E-05 ( 16,  1, 89)  0.5535E-05 ( 16,  1, 89)  0.8590E-07 ( 17,  1, 89)
     1 CALLS TO GCG PACKAGE FOR TRANSPORT TIME STEP 260 IN FLOW TIME STEP   1 STRESS PERIOD   1
     8 TOTAL ITERATIONS
  MAXIMUM CONCENTRATION CHANGES FOR EACH ITERATION:
  MAX. CHANGE LAYER,ROW,COL MAX. CHANGE LAYER,ROW,COL MAX. CHANGE LAYER,ROW,COL MAX. CHANGE LAYER,ROW,COL MAX. CHANGE LAYER,ROW,COL
 ------------------------------------------------------------------------------------------------------------------------------------
   0.5769E-01 ( 19,  1, 88)  0.5616E-02 ( 19,  1, 87)  0.2455E-02 ( 18,  1, 87)  0.5902E-03 ( 18,  1, 87)  0.1307E-03 ( 16,  1, 89)
   0.3963E-04 ( 17,  1, 90)  0.7125E-05 ( 17,  1, 90)  0.6318E-06 ( 18,  1, 90)



 >>>>>>>>>>>>>>>>>>>>>>>>>>>>>>>>>>>>>>>>>>>>>>>>>>>>>>>FOR COMPONENT NO. 01<<<<<<<<<<<<<<<<<<<<<<<<<<<<<<<<<<<<<<<<<<<<<<<<<<<<<<<


                                            -------------------------------------------
                                                      TRANSPORT STEP NO.  260
                                            -------------------------------------------

 TOTAL ELAPSED TIME SINCE BEGINNING OF SIMULATION =   13000.00    D   
 .....................................................................

                     CUMMULATIVE MASS BUDGETS AT END OF TRANSPORT STEP  260, TIME STEP    1, STRESS PERIOD    1
                     ------------------------------------------------------------------------------------------

                                                             IN                           OUT
                                                      ----------------             ----------------
                               CONSTANT CONCENTRATION:    0.000000                    0.000000    
                                        CONSTANT HEAD:   0.5146682E+09              -0.5144846E+09
                                                WELLS:    0.000000                    0.000000    
                                             RECHARGE:    0.000000                    0.000000    
                               1ST/0TH ORDER REACTION:    0.000000                    0.000000    
                                MASS STORAGE (SOLUTE):   0.7206522E+08              -0.7224894E+08
                            ---------------------------------------------------------------------------
                                              [TOTAL]:   0.5867340E+09 KG           -0.5867341E+09 KG  

                                                          NET (IN - OUT):   -90.94007    
                                                   DISCREPANCY (PERCENT):  -0.1549937E-04



 >>>>>>>>>>>>>>>>>>>>>>>>>>>>>>>>>>>>>>>>>>>>>>>>>>>>>>>FOR COMPONENT NO. 02<<<<<<<<<<<<<<<<<<<<<<<<<<<<<<<<<<<<<<<<<<<<<<<<<<<<<<<


                                            -------------------------------------------
                                                      TRANSPORT STEP NO.  260
                                            -------------------------------------------

 TOTAL ELAPSED TIME SINCE BEGINNING OF SIMULATION =   13000.00    D   
 .....................................................................

                     CUMMULATIVE MASS BUDGETS AT END OF TRANSPORT STEP  260, TIME STEP    1, STRESS PERIOD    1
                     ------------------------------------------------------------------------------------------

                                                             IN                           OUT
                                                      ----------------             ----------------
                               CONSTANT CONCENTRATION:    0.000000                    0.000000    
                                        CONSTANT HEAD:    0.000000                  -0.4897819E+11
                                                WELLS:    0.000000                    0.000000    
                                             RECHARGE:    0.000000                    0.000000    
                               1ST/0TH ORDER REACTION:   0.2151500E+12                0.000000    
                                MASS STORAGE (SOLUTE):   0.1181057E+11              -0.1779824E+12
                            ---------------------------------------------------------------------------
                                              [TOTAL]:   0.2269608E+12 KG           -0.2269608E+12 KG  

                                                          NET (IN - OUT):   -6875.648    
                                                   DISCREPANCY (PERCENT):  -0.3029443E-05
 
 SOLVING FOR HEAD 


     2 CALLS TO PCG ROUTINE FOR TIME STEP   1 IN STRESS PERIOD    1
     9 TOTAL ITERATIONS

 MAXIMUM HEAD CHANGE FOR EACH ITERATION (1 INDICATES THE FIRST INNER ITERATION):

    HEAD CHANGE    HEAD CHANGE    HEAD CHANGE    HEAD CHANGE    HEAD CHANGE 
   LAYER,ROW,COL  LAYER,ROW,COL  LAYER,ROW,COL  LAYER,ROW,COL  LAYER,ROW,COL
 ---------------------------------------------------------------------------
  1  0.1377E-01  0  0.4469E-02  0 -0.3313E-02  0 -0.8828E-02  0  0.7589E-02
   ( 15,  1, 86)  (  7,  1, 43)  (  7,  1, 12)  (  6,  1, 44)  (  7,  1, 46)
  0  0.2790E-02  0 -0.1329E-02  0 -0.8953E-03  1  0.7043E-03
   ( 11,  1, 49)  ( 11,  1, 49)  ( 11,  1, 59)  ( 11,  1, 60)

 MAXIMUM RESIDUAL FOR EACH ITERATION (1 INDICATES THE FIRST INNER ITERATION):

    RESIDUAL       RESIDUAL       RESIDUAL       RESIDUAL       RESIDUAL    
   LAYER,ROW,COL  LAYER,ROW,COL  LAYER,ROW,COL  LAYER,ROW,COL  LAYER,ROW,COL
 ---------------------------------------------------------------------------
  1  0.1333E+06  0 -0.9376E+05  0 -0.9285E+05  0 -0.6139E+05  0  -5872.    
   ( 21,  1, 89)  ( 19,  1, 89)  ( 19,  1, 89)  ( 19,  1, 89)  ( 17,  1, 87)
  0   2844.      0   2631.      0   961.7      1   856.4    
   ( 22,  1, 87)  ( 22,  1, 87)  ( 22,  1, 87)  ( 22,  1, 87)


 FLOW MODEL IS TRANSIENT
 FLOW MODEL CONTAINS CONSTANT-HEAD CELLS


 MAXIMUM STEPSIZE DURING WHICH ANY PARTICLE CANNOT MOVE MORE THAN ONE CELL
 =  12.92    (WHEN MIN. R.F.=1)  AT K=  17, I=   1, J=  90

 MAXIMUM STEPSIZE WHICH MEETS STABILITY CRITERION OF THE ADVECTION TERM
 (FOR PURE FINITE-DIFFERENCE OPTION, MIXELM=0) 
 =  8.062    (WHEN MIN. R.F.=1)  AT K=  16, I=   1, J=  90


 TOTAL NUMBER OF POINT SOURCES/SINKS PRESENT IN THE FLOW MODEL =    30

 MAXIMUM STEPSIZE WHICH MEETS STABILITY CRITERION OF THE SINK & SOURCE TERM
 =  12.29    (WHEN MIN. R.F.=1)  AT K=  17, I=   1, J=  91

 MAXIMUM STEPSIZE WHICH MEETS STABILITY CRITERION OF THE DISPERSION TERM
 =  4.055    (WHEN MIN. R.F.=1)  AT K=  17, I=   1, J=  90
     1 CALLS TO GCG PACKAGE FOR TRANSPORT TIME STEP 261 IN FLOW TIME STEP   1 STRESS PERIOD   1
     8 TOTAL ITERATIONS
     1 CALLS TO GCG PACKAGE FOR TRANSPORT TIME STEP 261 IN FLOW TIME STEP   1 STRESS PERIOD   1
     8 TOTAL ITERATIONS
 
 SOLVING FOR HEAD 


     2 CALLS TO PCG ROUTINE FOR TIME STEP   1 IN STRESS PERIOD    1
     9 TOTAL ITERATIONS

 MAXIMUM HEAD CHANGE FOR EACH ITERATION (1 INDICATES THE FIRST INNER ITERATION):

    HEAD CHANGE    HEAD CHANGE    HEAD CHANGE    HEAD CHANGE    HEAD CHANGE 
   LAYER,ROW,COL  LAYER,ROW,COL  LAYER,ROW,COL  LAYER,ROW,COL  LAYER,ROW,COL
 ---------------------------------------------------------------------------
  1 -0.1361E-01  0  0.3997E-02  0  0.3439E-02  0 -0.1074E-01  0  0.1127E-01
   ( 15,  1, 86)  ( 17,  1, 89)  (  8,  1, 12)  ( 11,  1, 59)  ( 11,  1, 58)
  0 -0.2181E-02  0  0.1159E-02  0  0.7435E-03  1 -0.5368E-03
   ( 11,  1, 56)  ( 11,  1, 54)  ( 11,  1, 60)  ( 11,  1, 64)

 MAXIMUM RESIDUAL FOR EACH ITERATION (1 INDICATES THE FIRST INNER ITERATION):

    RESIDUAL       RESIDUAL       RESIDUAL       RESIDUAL       RESIDUAL    
   LAYER,ROW,COL  LAYER,ROW,COL  LAYER,ROW,COL  LAYER,ROW,COL  LAYER,ROW,COL
 ---------------------------------------------------------------------------
  1 -0.1373E+06  0  0.9810E+05  0  0.9717E+05  0  0.2067E+05  0   4838.    
   ( 21,  1, 89)  ( 19,  1, 89)  ( 19,  1, 89)  ( 19,  1, 89)  ( 17,  1, 87)
  0  -2826.      0  -2295.      0  -734.9      1  -621.0    
   ( 22,  1, 87)  ( 22,  1, 87)  ( 22,  1, 87)  ( 22,  1, 87)


 FLOW MODEL IS TRANSIENT
 FLOW MODEL CONTAINS CONSTANT-HEAD CELLS


 MAXIMUM STEPSIZE DURING WHICH ANY PARTICLE CANNOT MOVE MORE THAN ONE CELL
 =  13.23    (WHEN MIN. R.F.=1)  AT K=  17, I=   1, J=  90

 MAXIMUM STEPSIZE WHICH MEETS STABILITY CRITERION OF THE ADVECTION TERM
 (FOR PURE FINITE-DIFFERENCE OPTION, MIXELM=0) 
 =  8.007    (WHEN MIN. R.F.=1)  AT K=  16, I=   1, J=  90


 TOTAL NUMBER OF POINT SOURCES/SINKS PRESENT IN THE FLOW MODEL =    30

 MAXIMUM STEPSIZE WHICH MEETS STABILITY CRITERION OF THE SINK & SOURCE TERM
 =  12.20    (WHEN MIN. R.F.=1)  AT K=  17, I=   1, J=  91

 MAXIMUM STEPSIZE WHICH MEETS STABILITY CRITERION OF THE DISPERSION TERM
 =  4.373    (WHEN MIN. R.F.=1)  AT K=  17, I=   1, J=  90
     1 CALLS TO GCG PACKAGE FOR TRANSPORT TIME STEP 262 IN FLOW TIME STEP   1 STRESS PERIOD   1
     7 TOTAL ITERATIONS
     1 CALLS TO GCG PACKAGE FOR TRANSPORT TIME STEP 262 IN FLOW TIME STEP   1 STRESS PERIOD   1
     8 TOTAL ITERATIONS
 
 SOLVING FOR HEAD 


     2 CALLS TO PCG ROUTINE FOR TIME STEP   1 IN STRESS PERIOD    1
     9 TOTAL ITERATIONS

 MAXIMUM HEAD CHANGE FOR EACH ITERATION (1 INDICATES THE FIRST INNER ITERATION):

    HEAD CHANGE    HEAD CHANGE    HEAD CHANGE    HEAD CHANGE    HEAD CHANGE 
   LAYER,ROW,COL  LAYER,ROW,COL  LAYER,ROW,COL  LAYER,ROW,COL  LAYER,ROW,COL
 ---------------------------------------------------------------------------
  1  0.1336E-01  0 -0.3660E-02  0 -0.3546E-02  0 -0.9516E-02  0  0.1182E-01
   ( 15,  1, 86)  ( 17,  1, 89)  (  7,  1, 12)  ( 11,  1, 50)  ( 11,  1, 50)
  0 -0.1609E-02  0 -0.1195E-02  0 -0.7996E-03  1  0.6482E-03
   ( 11,  1, 52)  ( 11,  1, 70)  ( 11,  1, 59)  ( 11,  1, 59)

 MAXIMUM RESIDUAL FOR EACH ITERATION (1 INDICATES THE FIRST INNER ITERATION):

    RESIDUAL       RESIDUAL       RESIDUAL       RESIDUAL       RESIDUAL    
   LAYER,ROW,COL  LAYER,ROW,COL  LAYER,ROW,COL  LAYER,ROW,COL  LAYER,ROW,COL
 ---------------------------------------------------------------------------
  1  0.1353E+06  0 -0.9520E+05  0 -0.8695E+05  0 -0.2505E+05  0  -5257.    
   ( 21,  1, 89)  ( 19,  1, 89)  ( 19,  1, 89)  ( 19,  1, 89)  ( 17,  1, 87)
  0   2861.      0   2335.      0   781.9      1   664.7    
   ( 22,  1, 87)  ( 22,  1, 87)  ( 22,  1, 87)  ( 22,  1, 87)


 FLOW MODEL IS TRANSIENT
 FLOW MODEL CONTAINS CONSTANT-HEAD CELLS


 MAXIMUM STEPSIZE DURING WHICH ANY PARTICLE CANNOT MOVE MORE THAN ONE CELL
 =  12.85    (WHEN MIN. R.F.=1)  AT K=  17, I=   1, J=  90

 MAXIMUM STEPSIZE WHICH MEETS STABILITY CRITERION OF THE ADVECTION TERM
 (FOR PURE FINITE-DIFFERENCE OPTION, MIXELM=0) 
 =  8.033    (WHEN MIN. R.F.=1)  AT K=  16, I=   1, J=  90


 TOTAL NUMBER OF POINT SOURCES/SINKS PRESENT IN THE FLOW MODEL =    30

 MAXIMUM STEPSIZE WHICH MEETS STABILITY CRITERION OF THE SINK & SOURCE TERM
 =  12.21    (WHEN MIN. R.F.=1)  AT K=  17, I=   1, J=  91

 MAXIMUM STEPSIZE WHICH MEETS STABILITY CRITERION OF THE DISPERSION TERM
 =  4.027    (WHEN MIN. R.F.=1)  AT K=  17, I=   1, J=  90
     1 CALLS TO GCG PACKAGE FOR TRANSPORT TIME STEP 263 IN FLOW TIME STEP   1 STRESS PERIOD   1
     8 TOTAL ITERATIONS
     1 CALLS TO GCG PACKAGE FOR TRANSPORT TIME STEP 263 IN FLOW TIME STEP   1 STRESS PERIOD   1
     9 TOTAL ITERATIONS
 
 SOLVING FOR HEAD 


     2 CALLS TO PCG ROUTINE FOR TIME STEP   1 IN STRESS PERIOD    1
     9 TOTAL ITERATIONS

 MAXIMUM HEAD CHANGE FOR EACH ITERATION (1 INDICATES THE FIRST INNER ITERATION):

    HEAD CHANGE    HEAD CHANGE    HEAD CHANGE    HEAD CHANGE    HEAD CHANGE 
   LAYER,ROW,COL  LAYER,ROW,COL  LAYER,ROW,COL  LAYER,ROW,COL  LAYER,ROW,COL
 ---------------------------------------------------------------------------
  1 -0.1343E-01  0  0.3689E-02  0  0.3015E-02  0 -0.9609E-02  0  0.8334E-02
   ( 15,  1, 86)  ( 17,  1, 89)  (  8,  1, 12)  ( 11,  1, 59)  ( 10,  1, 50)
  0 -0.2073E-02  0 -0.1138E-02  0  0.9655E-03  1 -0.7570E-03
   ( 11,  1, 65)  ( 11,  1, 59)  ( 11,  1, 55)  ( 11,  1, 54)

 MAXIMUM RESIDUAL FOR EACH ITERATION (1 INDICATES THE FIRST INNER ITERATION):

    RESIDUAL       RESIDUAL       RESIDUAL       RESIDUAL       RESIDUAL    
   LAYER,ROW,COL  LAYER,ROW,COL  LAYER,ROW,COL  LAYER,ROW,COL  LAYER,ROW,COL
 ---------------------------------------------------------------------------
  1 -0.1333E+06  0  0.9365E+05  0  0.9266E+05  0  0.3269E+05  0   5854.    
   ( 21,  1, 89)  ( 19,  1, 89)  ( 19,  1, 89)  ( 19,  1, 89)  ( 17,  1, 87)
  0  -2831.      0  -2566.      0  -961.9      1  -830.2    
   ( 22,  1, 87)  ( 22,  1, 87)  ( 22,  1, 87)  ( 22,  1, 87)


 FLOW MODEL IS TRANSIENT
 FLOW MODEL CONTAINS CONSTANT-HEAD CELLS


 MAXIMUM STEPSIZE DURING WHICH ANY PARTICLE CANNOT MOVE MORE THAN ONE CELL
 =  13.21    (WHEN MIN. R.F.=1)  AT K=  17, I=   1, J=  90

 MAXIMUM STEPSIZE WHICH MEETS STABILITY CRITERION OF THE ADVECTION TERM
 (FOR PURE FINITE-DIFFERENCE OPTION, MIXELM=0) 
 =  8.001    (WHEN MIN. R.F.=1)  AT K=  16, I=   1, J=  90


 TOTAL NUMBER OF POINT SOURCES/SINKS PRESENT IN THE FLOW MODEL =    30

 MAXIMUM STEPSIZE WHICH MEETS STABILITY CRITERION OF THE SINK & SOURCE TERM
 =  12.17    (WHEN MIN. R.F.=1)  AT K=  17, I=   1, J=  91

 MAXIMUM STEPSIZE WHICH MEETS STABILITY CRITERION OF THE DISPERSION TERM
 =  4.359    (WHEN MIN. R.F.=1)  AT K=  17, I=   1, J=  90
     1 CALLS TO GCG PACKAGE FOR TRANSPORT TIME STEP 264 IN FLOW TIME STEP   1 STRESS PERIOD   1
     7 TOTAL ITERATIONS
     1 CALLS TO GCG PACKAGE FOR TRANSPORT TIME STEP 264 IN FLOW TIME STEP   1 STRESS PERIOD   1
     8 TOTAL ITERATIONS
 
 SOLVING FOR HEAD 


     2 CALLS TO PCG ROUTINE FOR TIME STEP   1 IN STRESS PERIOD    1
     8 TOTAL ITERATIONS

 MAXIMUM HEAD CHANGE FOR EACH ITERATION (1 INDICATES THE FIRST INNER ITERATION):

    HEAD CHANGE    HEAD CHANGE    HEAD CHANGE    HEAD CHANGE    HEAD CHANGE 
   LAYER,ROW,COL  LAYER,ROW,COL  LAYER,ROW,COL  LAYER,ROW,COL  LAYER,ROW,COL
 ---------------------------------------------------------------------------
  1  0.1350E-01  0 -0.3687E-02  0 -0.2322E-02  0  0.1255E-01  0 -0.1251E-01
   ( 15,  1, 86)  ( 17,  1, 89)  (  8,  1, 12)  ( 11,  1, 54)  ( 11,  1, 54)
  0  0.1945E-02  0 -0.8288E-03  1 -0.5595E-03
   ( 11,  1, 49)  ( 11,  1, 49)  ( 11,  1, 64)

 MAXIMUM RESIDUAL FOR EACH ITERATION (1 INDICATES THE FIRST INNER ITERATION):

    RESIDUAL       RESIDUAL       RESIDUAL       RESIDUAL       RESIDUAL    
   LAYER,ROW,COL  LAYER,ROW,COL  LAYER,ROW,COL  LAYER,ROW,COL  LAYER,ROW,COL
 ---------------------------------------------------------------------------
  1  0.1314E+06  0 -0.9211E+05  0 -0.9053E+05  0 -0.2435E+05  0  -5290.    
   ( 21,  1, 89)  ( 19,  1, 89)  ( 19,  1, 89)  ( 19,  1, 89)  ( 17,  1, 87)
  0   2869.      0   2570.      1   2073.    
   ( 22,  1, 87)  ( 22,  1, 87)  ( 22,  1, 87)


 FLOW MODEL IS TRANSIENT
 FLOW MODEL CONTAINS CONSTANT-HEAD CELLS


 MAXIMUM STEPSIZE DURING WHICH ANY PARTICLE CANNOT MOVE MORE THAN ONE CELL
 =  12.85    (WHEN MIN. R.F.=1)  AT K=  17, I=   1, J=  90

 MAXIMUM STEPSIZE WHICH MEETS STABILITY CRITERION OF THE ADVECTION TERM
 (FOR PURE FINITE-DIFFERENCE OPTION, MIXELM=0) 
 =  8.031    (WHEN MIN. R.F.=1)  AT K=  16, I=   1, J=  90


 TOTAL NUMBER OF POINT SOURCES/SINKS PRESENT IN THE FLOW MODEL =    30

 MAXIMUM STEPSIZE WHICH MEETS STABILITY CRITERION OF THE SINK & SOURCE TERM
 =  12.20    (WHEN MIN. R.F.=1)  AT K=  17, I=   1, J=  91

 MAXIMUM STEPSIZE WHICH MEETS STABILITY CRITERION OF THE DISPERSION TERM
 =  4.031    (WHEN MIN. R.F.=1)  AT K=  17, I=   1, J=  90
     1 CALLS TO GCG PACKAGE FOR TRANSPORT TIME STEP 265 IN FLOW TIME STEP   1 STRESS PERIOD   1
     8 TOTAL ITERATIONS
  MAXIMUM CONCENTRATION CHANGES FOR EACH ITERATION:
  MAX. CHANGE LAYER,ROW,COL MAX. CHANGE LAYER,ROW,COL MAX. CHANGE LAYER,ROW,COL MAX. CHANGE LAYER,ROW,COL MAX. CHANGE LAYER,ROW,COL
 ------------------------------------------------------------------------------------------------------------------------------------
   0.5203E-01 ( 20,  1, 87)  0.4167E-02 ( 19,  1, 89)  0.2129E-02 ( 17,  1, 86)  0.4822E-03 ( 20,  1, 89)  0.9730E-04 ( 16,  1, 89)
   0.2030E-04 ( 20,  1, 89)  0.1775E-04 ( 16,  1, 90)  0.6536E-06 ( 17,  1, 90)
     1 CALLS TO GCG PACKAGE FOR TRANSPORT TIME STEP 265 IN FLOW TIME STEP   1 STRESS PERIOD   1
     9 TOTAL ITERATIONS
  MAXIMUM CONCENTRATION CHANGES FOR EACH ITERATION:
  MAX. CHANGE LAYER,ROW,COL MAX. CHANGE LAYER,ROW,COL MAX. CHANGE LAYER,ROW,COL MAX. CHANGE LAYER,ROW,COL MAX. CHANGE LAYER,ROW,COL
 ------------------------------------------------------------------------------------------------------------------------------------
   0.6261E-01 ( 20,  1, 87)  0.4653E-02 ( 19,  1, 86)  0.2111E-02 ( 18,  1, 86)  0.8134E-03 ( 19,  1, 89)  0.1323E-03 ( 16,  1, 89)
   0.4387E-04 ( 23,  1, 87)  0.1323E-04 ( 17,  1, 90)  0.1031E-05 ( 17,  1, 90)  0.1981E-06 ( 17,  1, 90)
 
 SOLVING FOR HEAD 


     2 CALLS TO PCG ROUTINE FOR TIME STEP   1 IN STRESS PERIOD    1
    10 TOTAL ITERATIONS

 MAXIMUM HEAD CHANGE FOR EACH ITERATION (1 INDICATES THE FIRST INNER ITERATION):

    HEAD CHANGE    HEAD CHANGE    HEAD CHANGE    HEAD CHANGE    HEAD CHANGE 
   LAYER,ROW,COL  LAYER,ROW,COL  LAYER,ROW,COL  LAYER,ROW,COL  LAYER,ROW,COL
 ---------------------------------------------------------------------------
  1 -0.1374E-01  0 -0.7747E-02  0  0.4060E-02  0  0.9377E-02  0 -0.6355E-02
   ( 15,  1, 86)  (  8,  1, 49)  (  7,  1, 12)  ( 10,  1, 50)  (  7,  1, 47)
  0 -0.4188E-02  0  0.1652E-02  0  0.1004E-02  0 -0.5859E-03  1 -0.2372E-03
   ( 11,  1, 54)  ( 11,  1, 54)  ( 11,  1, 65)  ( 11,  1, 65)  ( 11,  1, 70)

 MAXIMUM RESIDUAL FOR EACH ITERATION (1 INDICATES THE FIRST INNER ITERATION):

    RESIDUAL       RESIDUAL       RESIDUAL       RESIDUAL       RESIDUAL    
   LAYER,ROW,COL  LAYER,ROW,COL  LAYER,ROW,COL  LAYER,ROW,COL  LAYER,ROW,COL
 ---------------------------------------------------------------------------
  1 -0.1352E+06  0  0.9567E+05  0  0.9489E+05  0  0.7717E+05  0   6239.    
   ( 21,  1, 89)  ( 19,  1, 89)  ( 19,  1, 89)  ( 19,  1, 89)  ( 17,  1, 87)
  0  -2834.      0  -2601.      0  -1657.      0  -388.6      1  -330.1    
   ( 17,  1, 88)  ( 22,  1, 87)  ( 22,  1, 87)  ( 22,  1, 87)  ( 22,  1, 87)


 FLOW MODEL IS TRANSIENT
 FLOW MODEL CONTAINS CONSTANT-HEAD CELLS


 MAXIMUM STEPSIZE DURING WHICH ANY PARTICLE CANNOT MOVE MORE THAN ONE CELL
 =  13.15    (WHEN MIN. R.F.=1)  AT K=  17, I=   1, J=  90

 MAXIMUM STEPSIZE WHICH MEETS STABILITY CRITERION OF THE ADVECTION TERM
 (FOR PURE FINITE-DIFFERENCE OPTION, MIXELM=0) 
 =  7.974    (WHEN MIN. R.F.=1)  AT K=  16, I=   1, J=  90


 TOTAL NUMBER OF POINT SOURCES/SINKS PRESENT IN THE FLOW MODEL =    30

 MAXIMUM STEPSIZE WHICH MEETS STABILITY CRITERION OF THE SINK & SOURCE TERM
 =  12.09    (WHEN MIN. R.F.=1)  AT K=  17, I=   1, J=  91

 MAXIMUM STEPSIZE WHICH MEETS STABILITY CRITERION OF THE DISPERSION TERM
 =  4.334    (WHEN MIN. R.F.=1)  AT K=  17, I=   1, J=  90
     1 CALLS TO GCG PACKAGE FOR TRANSPORT TIME STEP 266 IN FLOW TIME STEP   1 STRESS PERIOD   1
     9 TOTAL ITERATIONS
     1 CALLS TO GCG PACKAGE FOR TRANSPORT TIME STEP 266 IN FLOW TIME STEP   1 STRESS PERIOD   1
     8 TOTAL ITERATIONS
 
 SOLVING FOR HEAD 


     2 CALLS TO PCG ROUTINE FOR TIME STEP   1 IN STRESS PERIOD    1
     8 TOTAL ITERATIONS

 MAXIMUM HEAD CHANGE FOR EACH ITERATION (1 INDICATES THE FIRST INNER ITERATION):

    HEAD CHANGE    HEAD CHANGE    HEAD CHANGE    HEAD CHANGE    HEAD CHANGE 
   LAYER,ROW,COL  LAYER,ROW,COL  LAYER,ROW,COL  LAYER,ROW,COL  LAYER,ROW,COL
 ---------------------------------------------------------------------------
  1  0.1354E-01  0 -0.3902E-02  0 -0.2439E-02  0  0.6859E-02  0 -0.8583E-02
   ( 15,  1, 86)  ( 17,  1, 89)  (  8,  1, 12)  ( 11,  1, 49)  ( 11,  1, 50)
  0  0.2736E-02  0 -0.7249E-03  1 -0.4406E-03
   ( 11,  1, 51)  ( 11,  1, 53)  ( 11,  1, 69)

 MAXIMUM RESIDUAL FOR EACH ITERATION (1 INDICATES THE FIRST INNER ITERATION):

    RESIDUAL       RESIDUAL       RESIDUAL       RESIDUAL       RESIDUAL    
   LAYER,ROW,COL  LAYER,ROW,COL  LAYER,ROW,COL  LAYER,ROW,COL  LAYER,ROW,COL
 ---------------------------------------------------------------------------
  1  0.1335E+06  0 -0.9453E+05  0 -0.9317E+05  0 -0.1578E+05  0   4519.    
   ( 21,  1, 89)  ( 19,  1, 89)  ( 19,  1, 89)  ( 19,  1, 89)  ( 17,  1, 88)
  0   2780.      0   2122.      1   1879.    
   ( 22,  1, 87)  ( 22,  1, 87)  ( 22,  1, 87)


 FLOW MODEL IS TRANSIENT
 FLOW MODEL CONTAINS CONSTANT-HEAD CELLS


 MAXIMUM STEPSIZE DURING WHICH ANY PARTICLE CANNOT MOVE MORE THAN ONE CELL
 =  12.81    (WHEN MIN. R.F.=1)  AT K=  17, I=   1, J=  90

 MAXIMUM STEPSIZE WHICH MEETS STABILITY CRITERION OF THE ADVECTION TERM
 (FOR PURE FINITE-DIFFERENCE OPTION, MIXELM=0) 
 =  8.016    (WHEN MIN. R.F.=1)  AT K=  16, I=   1, J=  90


 TOTAL NUMBER OF POINT SOURCES/SINKS PRESENT IN THE FLOW MODEL =    30

 MAXIMUM STEPSIZE WHICH MEETS STABILITY CRITERION OF THE SINK & SOURCE TERM
 =  12.16    (WHEN MIN. R.F.=1)  AT K=  17, I=   1, J=  91

 MAXIMUM STEPSIZE WHICH MEETS STABILITY CRITERION OF THE DISPERSION TERM
 =  4.013    (WHEN MIN. R.F.=1)  AT K=  17, I=   1, J=  90
     1 CALLS TO GCG PACKAGE FOR TRANSPORT TIME STEP 267 IN FLOW TIME STEP   1 STRESS PERIOD   1
     8 TOTAL ITERATIONS
     1 CALLS TO GCG PACKAGE FOR TRANSPORT TIME STEP 267 IN FLOW TIME STEP   1 STRESS PERIOD   1
     9 TOTAL ITERATIONS
 
 SOLVING FOR HEAD 


     2 CALLS TO PCG ROUTINE FOR TIME STEP   1 IN STRESS PERIOD    1
     9 TOTAL ITERATIONS

 MAXIMUM HEAD CHANGE FOR EACH ITERATION (1 INDICATES THE FIRST INNER ITERATION):

    HEAD CHANGE    HEAD CHANGE    HEAD CHANGE    HEAD CHANGE    HEAD CHANGE 
   LAYER,ROW,COL  LAYER,ROW,COL  LAYER,ROW,COL  LAYER,ROW,COL  LAYER,ROW,COL
 ---------------------------------------------------------------------------
  1 -0.1357E-01  0 -0.4012E-02  0  0.3425E-02  0  0.9185E-02  0 -0.8116E-02
   ( 15,  1, 86)  (  7,  1, 42)  (  7,  1, 12)  ( 11,  1, 68)  ( 11,  1, 68)
  0  0.2111E-02  0  0.1059E-02  0  0.8726E-03  1 -0.6312E-03
   ( 11,  1, 62)  ( 11,  1, 70)  ( 11,  1, 58)  ( 11,  1, 58)

 MAXIMUM RESIDUAL FOR EACH ITERATION (1 INDICATES THE FIRST INNER ITERATION):

    RESIDUAL       RESIDUAL       RESIDUAL       RESIDUAL       RESIDUAL    
   LAYER,ROW,COL  LAYER,ROW,COL  LAYER,ROW,COL  LAYER,ROW,COL  LAYER,ROW,COL
 ---------------------------------------------------------------------------
  1 -0.1309E+06  0  0.9163E+05  0  0.9080E+05  0  0.5445E+05  0   6043.    
   ( 21,  1, 89)  ( 19,  1, 89)  ( 19,  1, 89)  ( 19,  1, 89)  ( 17,  1, 87)
  0  -2793.      0  -2570.      0  -914.3      1  -797.1    
   ( 22,  1, 87)  ( 22,  1, 87)  ( 22,  1, 87)  ( 22,  1, 87)


 FLOW MODEL IS TRANSIENT
 FLOW MODEL CONTAINS CONSTANT-HEAD CELLS


 MAXIMUM STEPSIZE DURING WHICH ANY PARTICLE CANNOT MOVE MORE THAN ONE CELL
 =  13.15    (WHEN MIN. R.F.=1)  AT K=  17, I=   1, J=  90

 MAXIMUM STEPSIZE WHICH MEETS STABILITY CRITERION OF THE ADVECTION TERM
 (FOR PURE FINITE-DIFFERENCE OPTION, MIXELM=0) 
 =  7.976    (WHEN MIN. R.F.=1)  AT K=  16, I=   1, J=  90


 TOTAL NUMBER OF POINT SOURCES/SINKS PRESENT IN THE FLOW MODEL =    30

 MAXIMUM STEPSIZE WHICH MEETS STABILITY CRITERION OF THE SINK & SOURCE TERM
 =  12.10    (WHEN MIN. R.F.=1)  AT K=  17, I=   1, J=  91

 MAXIMUM STEPSIZE WHICH MEETS STABILITY CRITERION OF THE DISPERSION TERM
 =  4.337    (WHEN MIN. R.F.=1)  AT K=  17, I=   1, J=  90
     1 CALLS TO GCG PACKAGE FOR TRANSPORT TIME STEP 268 IN FLOW TIME STEP   1 STRESS PERIOD   1
    10 TOTAL ITERATIONS
     1 CALLS TO GCG PACKAGE FOR TRANSPORT TIME STEP 268 IN FLOW TIME STEP   1 STRESS PERIOD   1
     8 TOTAL ITERATIONS
 
 SOLVING FOR HEAD 


     2 CALLS TO PCG ROUTINE FOR TIME STEP   1 IN STRESS PERIOD    1
     9 TOTAL ITERATIONS

 MAXIMUM HEAD CHANGE FOR EACH ITERATION (1 INDICATES THE FIRST INNER ITERATION):

    HEAD CHANGE    HEAD CHANGE    HEAD CHANGE    HEAD CHANGE    HEAD CHANGE 
   LAYER,ROW,COL  LAYER,ROW,COL  LAYER,ROW,COL  LAYER,ROW,COL  LAYER,ROW,COL
 ---------------------------------------------------------------------------
  1  0.1361E-01  0 -0.4012E-02  0 -0.2999E-02  0  0.1104E-01  0 -0.1195E-01
   ( 15,  1, 86)  ( 17,  1, 89)  (  8,  1, 12)  ( 11,  1, 58)  ( 11,  1, 58)
  0  0.2367E-02  0 -0.1065E-02  0 -0.5220E-03  1  0.3555E-03
   ( 11,  1, 56)  ( 11,  1, 53)  ( 11,  1, 59)  ( 11,  1, 70)

 MAXIMUM RESIDUAL FOR EACH ITERATION (1 INDICATES THE FIRST INNER ITERATION):

    RESIDUAL       RESIDUAL       RESIDUAL       RESIDUAL       RESIDUAL    
   LAYER,ROW,COL  LAYER,ROW,COL  LAYER,ROW,COL  LAYER,ROW,COL  LAYER,ROW,COL
 ---------------------------------------------------------------------------
  1  0.1317E+06  0 -0.9297E+05  0 -0.9200E+05  0 -0.1901E+05  0   4699.    
   ( 21,  1, 89)  ( 19,  1, 89)  ( 19,  1, 89)  ( 19,  1, 89)  ( 17,  1, 88)
  0   2778.      0   2380.      0   711.2      1   612.9    
   ( 22,  1, 87)  ( 22,  1, 87)  ( 22,  1, 87)  ( 22,  1, 87)


 FLOW MODEL IS TRANSIENT
 FLOW MODEL CONTAINS CONSTANT-HEAD CELLS


 MAXIMUM STEPSIZE DURING WHICH ANY PARTICLE CANNOT MOVE MORE THAN ONE CELL
 =  12.84    (WHEN MIN. R.F.=1)  AT K=  17, I=   1, J=  90

 MAXIMUM STEPSIZE WHICH MEETS STABILITY CRITERION OF THE ADVECTION TERM
 (FOR PURE FINITE-DIFFERENCE OPTION, MIXELM=0) 
 =  8.027    (WHEN MIN. R.F.=1)  AT K=  16, I=   1, J=  90


 TOTAL NUMBER OF POINT SOURCES/SINKS PRESENT IN THE FLOW MODEL =    30

 MAXIMUM STEPSIZE WHICH MEETS STABILITY CRITERION OF THE SINK & SOURCE TERM
 =  12.18    (WHEN MIN. R.F.=1)  AT K=  17, I=   1, J=  91

 MAXIMUM STEPSIZE WHICH MEETS STABILITY CRITERION OF THE DISPERSION TERM
 =  4.024    (WHEN MIN. R.F.=1)  AT K=  17, I=   1, J=  90
     1 CALLS TO GCG PACKAGE FOR TRANSPORT TIME STEP 269 IN FLOW TIME STEP   1 STRESS PERIOD   1
     8 TOTAL ITERATIONS
     1 CALLS TO GCG PACKAGE FOR TRANSPORT TIME STEP 269 IN FLOW TIME STEP   1 STRESS PERIOD   1
     8 TOTAL ITERATIONS
 
 SOLVING FOR HEAD 


     2 CALLS TO PCG ROUTINE FOR TIME STEP   1 IN STRESS PERIOD    1
     9 TOTAL ITERATIONS

 MAXIMUM HEAD CHANGE FOR EACH ITERATION (1 INDICATES THE FIRST INNER ITERATION):

    HEAD CHANGE    HEAD CHANGE    HEAD CHANGE    HEAD CHANGE    HEAD CHANGE 
   LAYER,ROW,COL  LAYER,ROW,COL  LAYER,ROW,COL  LAYER,ROW,COL  LAYER,ROW,COL
 ---------------------------------------------------------------------------
  1 -0.1333E-01  0  0.3602E-02  0  0.2311E-02  0  0.8667E-02  0 -0.8617E-02
   ( 15,  1, 86)  ( 17,  1, 89)  (  7,  1, 12)  ( 11,  1, 49)  ( 11,  1, 50)
  0 -0.1530E-02  0  0.1202E-02  0  0.9900E-03  1 -0.8368E-03
   ( 11,  1, 35)  ( 11,  1, 49)  ( 11,  1, 70)  ( 11,  1, 70)

 MAXIMUM RESIDUAL FOR EACH ITERATION (1 INDICATES THE FIRST INNER ITERATION):

    RESIDUAL       RESIDUAL       RESIDUAL       RESIDUAL       RESIDUAL    
   LAYER,ROW,COL  LAYER,ROW,COL  LAYER,ROW,COL  LAYER,ROW,COL  LAYER,ROW,COL
 ---------------------------------------------------------------------------
  1 -0.1299E+06  0  0.9108E+05  0  0.8913E+05  0  0.2682E+05  0   5660.    
   ( 21,  1, 89)  ( 19,  1, 89)  ( 19,  1, 89)  ( 19,  1, 89)  ( 17,  1, 87)
  0  -2835.      0  -2560.      0  -906.4      1  -766.4    
   ( 22,  1, 87)  ( 22,  1, 87)  ( 22,  1, 87)  ( 22,  1, 87)


 FLOW MODEL IS TRANSIENT
 FLOW MODEL CONTAINS CONSTANT-HEAD CELLS


 MAXIMUM STEPSIZE DURING WHICH ANY PARTICLE CANNOT MOVE MORE THAN ONE CELL
 =  13.21    (WHEN MIN. R.F.=1)  AT K=  17, I=   1, J=  90

 MAXIMUM STEPSIZE WHICH MEETS STABILITY CRITERION OF THE ADVECTION TERM
 (FOR PURE FINITE-DIFFERENCE OPTION, MIXELM=0) 
 =  8.000    (WHEN MIN. R.F.=1)  AT K=  16, I=   1, J=  90


 TOTAL NUMBER OF POINT SOURCES/SINKS PRESENT IN THE FLOW MODEL =    30

 MAXIMUM STEPSIZE WHICH MEETS STABILITY CRITERION OF THE SINK & SOURCE TERM
 =  12.17    (WHEN MIN. R.F.=1)  AT K=  17, I=   1, J=  91

 MAXIMUM STEPSIZE WHICH MEETS STABILITY CRITERION OF THE DISPERSION TERM
 =  4.361    (WHEN MIN. R.F.=1)  AT K=  17, I=   1, J=  90
     1 CALLS TO GCG PACKAGE FOR TRANSPORT TIME STEP 270 IN FLOW TIME STEP   1 STRESS PERIOD   1
     7 TOTAL ITERATIONS
  MAXIMUM CONCENTRATION CHANGES FOR EACH ITERATION:
  MAX. CHANGE LAYER,ROW,COL MAX. CHANGE LAYER,ROW,COL MAX. CHANGE LAYER,ROW,COL MAX. CHANGE LAYER,ROW,COL MAX. CHANGE LAYER,ROW,COL
 ------------------------------------------------------------------------------------------------------------------------------------
   0.4930E-01 ( 20,  1, 87)  0.3326E-02 ( 19,  1, 87)  0.2240E-02 ( 18,  1, 87)  0.2182E-03 ( 16,  1, 88)  0.1422E-03 ( 16,  1, 89)
   0.3010E-04 ( 16,  1, 90)  0.9192E-07 ( 21,  1, 78)
     1 CALLS TO GCG PACKAGE FOR TRANSPORT TIME STEP 270 IN FLOW TIME STEP   1 STRESS PERIOD   1
     8 TOTAL ITERATIONS
  MAXIMUM CONCENTRATION CHANGES FOR EACH ITERATION:
  MAX. CHANGE LAYER,ROW,COL MAX. CHANGE LAYER,ROW,COL MAX. CHANGE LAYER,ROW,COL MAX. CHANGE LAYER,ROW,COL MAX. CHANGE LAYER,ROW,COL
 ------------------------------------------------------------------------------------------------------------------------------------
   0.5718E-01 ( 19,  1, 88)  0.5484E-02 ( 19,  1, 87)  0.2430E-02 ( 18,  1, 87)  0.5660E-03 ( 18,  1, 87)  0.1339E-03 ( 16,  1, 89)
   0.3957E-04 ( 17,  1, 90)  0.6996E-05 ( 17,  1, 90)  0.5981E-06 ( 18,  1, 90)



 >>>>>>>>>>>>>>>>>>>>>>>>>>>>>>>>>>>>>>>>>>>>>>>>>>>>>>>FOR COMPONENT NO. 01<<<<<<<<<<<<<<<<<<<<<<<<<<<<<<<<<<<<<<<<<<<<<<<<<<<<<<<


                                            -------------------------------------------
                                                      TRANSPORT STEP NO.  270
                                            -------------------------------------------

 TOTAL ELAPSED TIME SINCE BEGINNING OF SIMULATION =   13500.00    D   
 .....................................................................

                     CUMMULATIVE MASS BUDGETS AT END OF TRANSPORT STEP  270, TIME STEP    1, STRESS PERIOD    1
                     ------------------------------------------------------------------------------------------

                                                             IN                           OUT
                                                      ----------------             ----------------
                               CONSTANT CONCENTRATION:    0.000000                    0.000000    
                                        CONSTANT HEAD:   0.5344621E+09              -0.5342761E+09
                                                WELLS:    0.000000                    0.000000    
                                             RECHARGE:    0.000000                    0.000000    
                               1ST/0TH ORDER REACTION:    0.000000                    0.000000    
                                MASS STORAGE (SOLUTE):   0.7482294E+08              -0.7500897E+08
                            ---------------------------------------------------------------------------
                                              [TOTAL]:   0.6092856E+09 KG           -0.6092857E+09 KG  

                                                          NET (IN - OUT):   -115.7831    
                                                   DISCREPANCY (PERCENT):  -0.1900309E-04



 >>>>>>>>>>>>>>>>>>>>>>>>>>>>>>>>>>>>>>>>>>>>>>>>>>>>>>>FOR COMPONENT NO. 02<<<<<<<<<<<<<<<<<<<<<<<<<<<<<<<<<<<<<<<<<<<<<<<<<<<<<<<


                                            -------------------------------------------
                                                      TRANSPORT STEP NO.  270
                                            -------------------------------------------

 TOTAL ELAPSED TIME SINCE BEGINNING OF SIMULATION =   13500.00    D   
 .....................................................................

                     CUMMULATIVE MASS BUDGETS AT END OF TRANSPORT STEP  270, TIME STEP    1, STRESS PERIOD    1
                     ------------------------------------------------------------------------------------------

                                                             IN                           OUT
                                                      ----------------             ----------------
                               CONSTANT CONCENTRATION:    0.000000                    0.000000    
                                        CONSTANT HEAD:    0.000000                  -0.5228009E+11
                                                WELLS:    0.000000                    0.000000    
                                             RECHARGE:    0.000000                    0.000000    
                               1ST/0TH ORDER REACTION:   0.2234250E+12                0.000000    
                                MASS STORAGE (SOLUTE):   0.1281661E+11              -0.1839615E+12
                            ---------------------------------------------------------------------------
                                              [TOTAL]:   0.2362418E+12 KG           -0.2362418E+12 KG  

                                                          NET (IN - OUT):   -7645.845    
                                                   DISCREPANCY (PERCENT):  -0.3236448E-05
 
 SOLVING FOR HEAD 


     2 CALLS TO PCG ROUTINE FOR TIME STEP   1 IN STRESS PERIOD    1
     8 TOTAL ITERATIONS

 MAXIMUM HEAD CHANGE FOR EACH ITERATION (1 INDICATES THE FIRST INNER ITERATION):

    HEAD CHANGE    HEAD CHANGE    HEAD CHANGE    HEAD CHANGE    HEAD CHANGE 
   LAYER,ROW,COL  LAYER,ROW,COL  LAYER,ROW,COL  LAYER,ROW,COL  LAYER,ROW,COL
 ---------------------------------------------------------------------------
  1  0.1349E-01  0 -0.3674E-02  0 -0.2393E-02  0 -0.1319E-01  0  0.1277E-01
   ( 15,  1, 86)  ( 17,  1, 89)  (  8,  1, 12)  ( 11,  1, 54)  ( 11,  1, 54)
  0 -0.1740E-02  0 -0.9697E-03  1  0.4222E-03
   ( 11,  1, 49)  ( 11,  1, 54)  ( 11,  1, 55)

 MAXIMUM RESIDUAL FOR EACH ITERATION (1 INDICATES THE FIRST INNER ITERATION):

    RESIDUAL       RESIDUAL       RESIDUAL       RESIDUAL       RESIDUAL    
   LAYER,ROW,COL  LAYER,ROW,COL  LAYER,ROW,COL  LAYER,ROW,COL  LAYER,ROW,COL
 ---------------------------------------------------------------------------
  1  0.1312E+06  0 -0.9148E+05  0 -0.9009E+05  0 -0.3019E+05  0  -5548.    
   ( 21,  1, 89)  ( 19,  1, 89)  ( 19,  1, 89)  ( 19,  1, 89)  ( 17,  1, 87)
  0   2882.      0   2624.      1   2010.    
   ( 22,  1, 87)  ( 22,  1, 87)  ( 22,  1, 87)


 FLOW MODEL IS TRANSIENT
 FLOW MODEL CONTAINS CONSTANT-HEAD CELLS


 MAXIMUM STEPSIZE DURING WHICH ANY PARTICLE CANNOT MOVE MORE THAN ONE CELL
 =  12.85    (WHEN MIN. R.F.=1)  AT K=  17, I=   1, J=  90

 MAXIMUM STEPSIZE WHICH MEETS STABILITY CRITERION OF THE ADVECTION TERM
 (FOR PURE FINITE-DIFFERENCE OPTION, MIXELM=0) 
 =  8.029    (WHEN MIN. R.F.=1)  AT K=  16, I=   1, J=  90


 TOTAL NUMBER OF POINT SOURCES/SINKS PRESENT IN THE FLOW MODEL =    30

 MAXIMUM STEPSIZE WHICH MEETS STABILITY CRITERION OF THE SINK & SOURCE TERM
 =  12.21    (WHEN MIN. R.F.=1)  AT K=  17, I=   1, J=  91

 MAXIMUM STEPSIZE WHICH MEETS STABILITY CRITERION OF THE DISPERSION TERM
 =  4.032    (WHEN MIN. R.F.=1)  AT K=  17, I=   1, J=  90
     1 CALLS TO GCG PACKAGE FOR TRANSPORT TIME STEP 271 IN FLOW TIME STEP   1 STRESS PERIOD   1
     8 TOTAL ITERATIONS
     1 CALLS TO GCG PACKAGE FOR TRANSPORT TIME STEP 271 IN FLOW TIME STEP   1 STRESS PERIOD   1
     9 TOTAL ITERATIONS
 
 SOLVING FOR HEAD 


     2 CALLS TO PCG ROUTINE FOR TIME STEP   1 IN STRESS PERIOD    1
    10 TOTAL ITERATIONS

 MAXIMUM HEAD CHANGE FOR EACH ITERATION (1 INDICATES THE FIRST INNER ITERATION):

    HEAD CHANGE    HEAD CHANGE    HEAD CHANGE    HEAD CHANGE    HEAD CHANGE 
   LAYER,ROW,COL  LAYER,ROW,COL  LAYER,ROW,COL  LAYER,ROW,COL  LAYER,ROW,COL
 ---------------------------------------------------------------------------
  1 -0.1365E-01  0  0.6587E-02  0  0.4199E-02  0 -0.9557E-02  0  0.6726E-02
   ( 15,  1, 86)  ( 11,  1, 56)  (  8,  1, 12)  (  8,  1, 47)  (  9,  1, 46)
  0  0.4542E-02  0 -0.1658E-02  0  0.1002E-02  0 -0.7593E-03  1 -0.3663E-03
   ( 11,  1, 55)  ( 11,  1, 55)  ( 11,  1, 49)  ( 11,  1, 49)  ( 11,  1, 70)

 MAXIMUM RESIDUAL FOR EACH ITERATION (1 INDICATES THE FIRST INNER ITERATION):

    RESIDUAL       RESIDUAL       RESIDUAL       RESIDUAL       RESIDUAL    
   LAYER,ROW,COL  LAYER,ROW,COL  LAYER,ROW,COL  LAYER,ROW,COL  LAYER,ROW,COL
 ---------------------------------------------------------------------------
  1 -0.1351E+06  0  0.9582E+05  0  0.9503E+05  0  0.7821E+05  0   6399.    
   ( 21,  1, 89)  ( 19,  1, 89)  ( 19,  1, 89)  ( 19,  1, 89)  ( 17,  1, 87)
  0  -3014.      0  -2599.      0  -1425.      0  -411.5      1  -347.6    
   ( 17,  1, 88)  ( 22,  1, 87)  ( 22,  1, 87)  ( 22,  1, 87)  ( 22,  1, 87)


 FLOW MODEL IS TRANSIENT
 FLOW MODEL CONTAINS CONSTANT-HEAD CELLS


 MAXIMUM STEPSIZE DURING WHICH ANY PARTICLE CANNOT MOVE MORE THAN ONE CELL
 =  13.14    (WHEN MIN. R.F.=1)  AT K=  17, I=   1, J=  90

 MAXIMUM STEPSIZE WHICH MEETS STABILITY CRITERION OF THE ADVECTION TERM
 (FOR PURE FINITE-DIFFERENCE OPTION, MIXELM=0) 
 =  7.973    (WHEN MIN. R.F.=1)  AT K=  16, I=   1, J=  90


 TOTAL NUMBER OF POINT SOURCES/SINKS PRESENT IN THE FLOW MODEL =    30

 MAXIMUM STEPSIZE WHICH MEETS STABILITY CRITERION OF THE SINK & SOURCE TERM
 =  12.09    (WHEN MIN. R.F.=1)  AT K=  17, I=   1, J=  91

 MAXIMUM STEPSIZE WHICH MEETS STABILITY CRITERION OF THE DISPERSION TERM
 =  4.332    (WHEN MIN. R.F.=1)  AT K=  17, I=   1, J=  90
     1 CALLS TO GCG PACKAGE FOR TRANSPORT TIME STEP 272 IN FLOW TIME STEP   1 STRESS PERIOD   1
     9 TOTAL ITERATIONS
     1 CALLS TO GCG PACKAGE FOR TRANSPORT TIME STEP 272 IN FLOW TIME STEP   1 STRESS PERIOD   1
     8 TOTAL ITERATIONS
 
 SOLVING FOR HEAD 


     2 CALLS TO PCG ROUTINE FOR TIME STEP   1 IN STRESS PERIOD    1
     8 TOTAL ITERATIONS

 MAXIMUM HEAD CHANGE FOR EACH ITERATION (1 INDICATES THE FIRST INNER ITERATION):

    HEAD CHANGE    HEAD CHANGE    HEAD CHANGE    HEAD CHANGE    HEAD CHANGE 
   LAYER,ROW,COL  LAYER,ROW,COL  LAYER,ROW,COL  LAYER,ROW,COL  LAYER,ROW,COL
 ---------------------------------------------------------------------------
  1  0.1356E-01  0 -0.3877E-02  0 -0.2861E-02  0 -0.8131E-02  0  0.1049E-01
   ( 15,  1, 86)  ( 17,  1, 89)  (  8,  1, 12)  ( 11,  1, 49)  ( 11,  1, 49)
  0 -0.2732E-02  0  0.7090E-03  1 -0.7782E-03
   ( 11,  1, 49)  ( 11,  1, 55)  ( 11,  1, 55)

 MAXIMUM RESIDUAL FOR EACH ITERATION (1 INDICATES THE FIRST INNER ITERATION):

    RESIDUAL       RESIDUAL       RESIDUAL       RESIDUAL       RESIDUAL    
   LAYER,ROW,COL  LAYER,ROW,COL  LAYER,ROW,COL  LAYER,ROW,COL  LAYER,ROW,COL
 ---------------------------------------------------------------------------
  1  0.1334E+06  0 -0.9428E+05  0 -0.9324E+05  0 -0.1542E+05  0   4326.    
   ( 21,  1, 89)  ( 19,  1, 89)  ( 19,  1, 89)  ( 19,  1, 89)  ( 17,  1, 88)
  0   2783.      0   2126.      1   1872.    
   ( 22,  1, 87)  ( 22,  1, 87)  ( 22,  1, 87)


 FLOW MODEL IS TRANSIENT
 FLOW MODEL CONTAINS CONSTANT-HEAD CELLS


 MAXIMUM STEPSIZE DURING WHICH ANY PARTICLE CANNOT MOVE MORE THAN ONE CELL
 =  12.82    (WHEN MIN. R.F.=1)  AT K=  17, I=   1, J=  90

 MAXIMUM STEPSIZE WHICH MEETS STABILITY CRITERION OF THE ADVECTION TERM
 (FOR PURE FINITE-DIFFERENCE OPTION, MIXELM=0) 
 =  8.017    (WHEN MIN. R.F.=1)  AT K=  16, I=   1, J=  90


 TOTAL NUMBER OF POINT SOURCES/SINKS PRESENT IN THE FLOW MODEL =    30

 MAXIMUM STEPSIZE WHICH MEETS STABILITY CRITERION OF THE SINK & SOURCE TERM
 =  12.17    (WHEN MIN. R.F.=1)  AT K=  17, I=   1, J=  91

 MAXIMUM STEPSIZE WHICH MEETS STABILITY CRITERION OF THE DISPERSION TERM
 =  4.015    (WHEN MIN. R.F.=1)  AT K=  17, I=   1, J=  90
     1 CALLS TO GCG PACKAGE FOR TRANSPORT TIME STEP 273 IN FLOW TIME STEP   1 STRESS PERIOD   1
     8 TOTAL ITERATIONS
     1 CALLS TO GCG PACKAGE FOR TRANSPORT TIME STEP 273 IN FLOW TIME STEP   1 STRESS PERIOD   1
     8 TOTAL ITERATIONS
 
 SOLVING FOR HEAD 


     2 CALLS TO PCG ROUTINE FOR TIME STEP   1 IN STRESS PERIOD    1
     9 TOTAL ITERATIONS

 MAXIMUM HEAD CHANGE FOR EACH ITERATION (1 INDICATES THE FIRST INNER ITERATION):

    HEAD CHANGE    HEAD CHANGE    HEAD CHANGE    HEAD CHANGE    HEAD CHANGE 
   LAYER,ROW,COL  LAYER,ROW,COL  LAYER,ROW,COL  LAYER,ROW,COL  LAYER,ROW,COL
 ---------------------------------------------------------------------------
  1 -0.1356E-01  0 -0.4012E-02  0  0.3275E-02  0  0.1178E-01  0 -0.9391E-02
   ( 15,  1, 86)  ( 11,  1, 55)  (  8,  1, 12)  ( 11,  1, 55)  ( 11,  1, 55)
  0 -0.2212E-02  0  0.1492E-02  0  0.9053E-03  1 -0.7001E-03
   ( 11,  1, 54)  ( 11,  1, 55)  ( 11,  1, 70)  ( 11,  1, 70)

 MAXIMUM RESIDUAL FOR EACH ITERATION (1 INDICATES THE FIRST INNER ITERATION):

    RESIDUAL       RESIDUAL       RESIDUAL       RESIDUAL       RESIDUAL    
   LAYER,ROW,COL  LAYER,ROW,COL  LAYER,ROW,COL  LAYER,ROW,COL  LAYER,ROW,COL
 ---------------------------------------------------------------------------
  1 -0.1309E+06  0  0.9171E+05  0  0.9084E+05  0  0.4636E+05  0   5865.    
   ( 21,  1, 89)  ( 19,  1, 89)  ( 19,  1, 89)  ( 19,  1, 89)  ( 17,  1, 87)
  0  -2765.      0  -2587.      0  -1242.      1  -1107.    
   ( 22,  1, 87)  ( 22,  1, 87)  ( 22,  1, 87)  ( 22,  1, 87)


 FLOW MODEL IS TRANSIENT
 FLOW MODEL CONTAINS CONSTANT-HEAD CELLS


 MAXIMUM STEPSIZE DURING WHICH ANY PARTICLE CANNOT MOVE MORE THAN ONE CELL
 =  13.16    (WHEN MIN. R.F.=1)  AT K=  17, I=   1, J=  90

 MAXIMUM STEPSIZE WHICH MEETS STABILITY CRITERION OF THE ADVECTION TERM
 (FOR PURE FINITE-DIFFERENCE OPTION, MIXELM=0) 
 =  7.977    (WHEN MIN. R.F.=1)  AT K=  16, I=   1, J=  90


 TOTAL NUMBER OF POINT SOURCES/SINKS PRESENT IN THE FLOW MODEL =    30

 MAXIMUM STEPSIZE WHICH MEETS STABILITY CRITERION OF THE SINK & SOURCE TERM
 =  12.10    (WHEN MIN. R.F.=1)  AT K=  17, I=   1, J=  91

 MAXIMUM STEPSIZE WHICH MEETS STABILITY CRITERION OF THE DISPERSION TERM
 =  4.339    (WHEN MIN. R.F.=1)  AT K=  17, I=   1, J=  90
     1 CALLS TO GCG PACKAGE FOR TRANSPORT TIME STEP 274 IN FLOW TIME STEP   1 STRESS PERIOD   1
     8 TOTAL ITERATIONS
     1 CALLS TO GCG PACKAGE FOR TRANSPORT TIME STEP 274 IN FLOW TIME STEP   1 STRESS PERIOD   1
     8 TOTAL ITERATIONS
 
 SOLVING FOR HEAD 


     2 CALLS TO PCG ROUTINE FOR TIME STEP   1 IN STRESS PERIOD    1
     8 TOTAL ITERATIONS

 MAXIMUM HEAD CHANGE FOR EACH ITERATION (1 INDICATES THE FIRST INNER ITERATION):

    HEAD CHANGE    HEAD CHANGE    HEAD CHANGE    HEAD CHANGE    HEAD CHANGE 
   LAYER,ROW,COL  LAYER,ROW,COL  LAYER,ROW,COL  LAYER,ROW,COL  LAYER,ROW,COL
 ---------------------------------------------------------------------------
  1  0.1370E-01  0 -0.4076E-02  0 -0.3511E-02  0 -0.9268E-02  0  0.1040E-01
   ( 15,  1, 86)  ( 17,  1, 89)  (  8,  1, 12)  ( 11,  1, 50)  ( 11,  1, 50)
  0 -0.1763E-02  0 -0.7452E-03  1 -0.5450E-03
   ( 11,  1, 53)  ( 11,  1, 62)  ( 11,  1, 37)

 MAXIMUM RESIDUAL FOR EACH ITERATION (1 INDICATES THE FIRST INNER ITERATION):

    RESIDUAL       RESIDUAL       RESIDUAL       RESIDUAL       RESIDUAL    
   LAYER,ROW,COL  LAYER,ROW,COL  LAYER,ROW,COL  LAYER,ROW,COL  LAYER,ROW,COL
 ---------------------------------------------------------------------------
  1  0.1320E+06  0 -0.9350E+05  0 -0.9266E+05  0 -0.2085E+05  0   5056.    
   ( 21,  1, 89)  ( 19,  1, 89)  ( 19,  1, 89)  ( 19,  1, 89)  ( 17,  1, 88)
  0   2792.      0   2456.      1   2069.    
   ( 22,  1, 87)  ( 22,  1, 87)  ( 22,  1, 87)


 FLOW MODEL IS TRANSIENT
 FLOW MODEL CONTAINS CONSTANT-HEAD CELLS


 MAXIMUM STEPSIZE DURING WHICH ANY PARTICLE CANNOT MOVE MORE THAN ONE CELL
 =  12.84    (WHEN MIN. R.F.=1)  AT K=  17, I=   1, J=  90

 MAXIMUM STEPSIZE WHICH MEETS STABILITY CRITERION OF THE ADVECTION TERM
 (FOR PURE FINITE-DIFFERENCE OPTION, MIXELM=0) 
 =  8.028    (WHEN MIN. R.F.=1)  AT K=  16, I=   1, J=  90


 TOTAL NUMBER OF POINT SOURCES/SINKS PRESENT IN THE FLOW MODEL =    30

 MAXIMUM STEPSIZE WHICH MEETS STABILITY CRITERION OF THE SINK & SOURCE TERM
 =  12.20    (WHEN MIN. R.F.=1)  AT K=  17, I=   1, J=  91

 MAXIMUM STEPSIZE WHICH MEETS STABILITY CRITERION OF THE DISPERSION TERM
 =  4.025    (WHEN MIN. R.F.=1)  AT K=  17, I=   1, J=  90
     1 CALLS TO GCG PACKAGE FOR TRANSPORT TIME STEP 275 IN FLOW TIME STEP   1 STRESS PERIOD   1
     8 TOTAL ITERATIONS
  MAXIMUM CONCENTRATION CHANGES FOR EACH ITERATION:
  MAX. CHANGE LAYER,ROW,COL MAX. CHANGE LAYER,ROW,COL MAX. CHANGE LAYER,ROW,COL MAX. CHANGE LAYER,ROW,COL MAX. CHANGE LAYER,ROW,COL
 ------------------------------------------------------------------------------------------------------------------------------------
   0.5211E-01 ( 20,  1, 87)  0.4241E-02 ( 19,  1, 89)  0.2088E-02 ( 17,  1, 86)  0.4705E-03 ( 20,  1, 89)  0.9350E-04 ( 16,  1, 89)
   0.2094E-04 ( 20,  1, 89)  0.1927E-04 ( 16,  1, 90)  0.6428E-06 ( 17,  1, 90)
     1 CALLS TO GCG PACKAGE FOR TRANSPORT TIME STEP 275 IN FLOW TIME STEP   1 STRESS PERIOD   1
     8 TOTAL ITERATIONS
  MAXIMUM CONCENTRATION CHANGES FOR EACH ITERATION:
  MAX. CHANGE LAYER,ROW,COL MAX. CHANGE LAYER,ROW,COL MAX. CHANGE LAYER,ROW,COL MAX. CHANGE LAYER,ROW,COL MAX. CHANGE LAYER,ROW,COL
 ------------------------------------------------------------------------------------------------------------------------------------
   0.6259E-01 ( 20,  1, 87)  0.4448E-02 ( 19,  1, 86)  0.2116E-02 ( 19,  1, 89)  0.8141E-03 ( 19,  1, 89)  0.1407E-03 ( 16,  1, 89)
   0.4822E-04 ( 23,  1, 87)  0.1513E-04 ( 17,  1, 90)  0.9911E-06 ( 17,  1, 90)
 
 SOLVING FOR HEAD 


     2 CALLS TO PCG ROUTINE FOR TIME STEP   1 IN STRESS PERIOD    1
    10 TOTAL ITERATIONS

 MAXIMUM HEAD CHANGE FOR EACH ITERATION (1 INDICATES THE FIRST INNER ITERATION):

    HEAD CHANGE    HEAD CHANGE    HEAD CHANGE    HEAD CHANGE    HEAD CHANGE 
   LAYER,ROW,COL  LAYER,ROW,COL  LAYER,ROW,COL  LAYER,ROW,COL  LAYER,ROW,COL
 ---------------------------------------------------------------------------
  1 -0.1369E-01  0 -0.5629E-02  0  0.4593E-02  0 -0.1014E-01  0  0.7657E-02
   ( 15,  1, 86)  ( 11,  1, 37)  (  8,  1, 12)  (  8,  1, 44)  (  6,  1, 45)
  0  0.3706E-02  0 -0.1545E-02  0  0.1004E-02  0 -0.7104E-03  1 -0.2587E-03
   ( 11,  1, 49)  ( 11,  1, 49)  ( 11,  1, 54)  ( 11,  1, 55)  ( 11,  1, 64)

 MAXIMUM RESIDUAL FOR EACH ITERATION (1 INDICATES THE FIRST INNER ITERATION):

    RESIDUAL       RESIDUAL       RESIDUAL       RESIDUAL       RESIDUAL    
   LAYER,ROW,COL  LAYER,ROW,COL  LAYER,ROW,COL  LAYER,ROW,COL  LAYER,ROW,COL
 ---------------------------------------------------------------------------
  1 -0.1325E+06  0  0.9321E+05  0  0.9258E+05  0  0.6991E+05  0   6234.    
   ( 21,  1, 89)  ( 19,  1, 89)  ( 19,  1, 89)  ( 19,  1, 89)  ( 17,  1, 87)
  0  -2844.      0  -2605.      0  -1308.      0  -402.1      1  -342.6    
   ( 17,  1, 88)  ( 22,  1, 87)  ( 22,  1, 87)  ( 22,  1, 87)  ( 22,  1, 87)


 FLOW MODEL IS TRANSIENT
 FLOW MODEL CONTAINS CONSTANT-HEAD CELLS


 MAXIMUM STEPSIZE DURING WHICH ANY PARTICLE CANNOT MOVE MORE THAN ONE CELL
 =  13.17    (WHEN MIN. R.F.=1)  AT K=  17, I=   1, J=  90

 MAXIMUM STEPSIZE WHICH MEETS STABILITY CRITERION OF THE ADVECTION TERM
 (FOR PURE FINITE-DIFFERENCE OPTION, MIXELM=0) 
 =  7.981    (WHEN MIN. R.F.=1)  AT K=  16, I=   1, J=  90


 TOTAL NUMBER OF POINT SOURCES/SINKS PRESENT IN THE FLOW MODEL =    30

 MAXIMUM STEPSIZE WHICH MEETS STABILITY CRITERION OF THE SINK & SOURCE TERM
 =  12.13    (WHEN MIN. R.F.=1)  AT K=  17, I=   1, J=  91

 MAXIMUM STEPSIZE WHICH MEETS STABILITY CRITERION OF THE DISPERSION TERM
 =  4.351    (WHEN MIN. R.F.=1)  AT K=  17, I=   1, J=  90
     1 CALLS TO GCG PACKAGE FOR TRANSPORT TIME STEP 276 IN FLOW TIME STEP   1 STRESS PERIOD   1
     7 TOTAL ITERATIONS
     1 CALLS TO GCG PACKAGE FOR TRANSPORT TIME STEP 276 IN FLOW TIME STEP   1 STRESS PERIOD   1
     8 TOTAL ITERATIONS
 
 SOLVING FOR HEAD 


     2 CALLS TO PCG ROUTINE FOR TIME STEP   1 IN STRESS PERIOD    1
     9 TOTAL ITERATIONS

 MAXIMUM HEAD CHANGE FOR EACH ITERATION (1 INDICATES THE FIRST INNER ITERATION):

    HEAD CHANGE    HEAD CHANGE    HEAD CHANGE    HEAD CHANGE    HEAD CHANGE 
   LAYER,ROW,COL  LAYER,ROW,COL  LAYER,ROW,COL  LAYER,ROW,COL  LAYER,ROW,COL
 ---------------------------------------------------------------------------
  1  0.1348E-01  0 -0.3951E-02  0 -0.2574E-02  0 -0.6974E-02  0  0.9502E-02
   ( 15,  1, 86)  ( 17,  1, 89)  (  8,  1, 12)  ( 11,  1, 55)  ( 11,  1, 55)
  0 -0.2822E-02  0 -0.1017E-02  0 -0.7447E-03  1  0.4744E-03
   ( 11,  1, 54)  ( 11,  1, 70)  ( 11,  1, 62)  ( 11,  1, 62)

 MAXIMUM RESIDUAL FOR EACH ITERATION (1 INDICATES THE FIRST INNER ITERATION):

    RESIDUAL       RESIDUAL       RESIDUAL       RESIDUAL       RESIDUAL    
   LAYER,ROW,COL  LAYER,ROW,COL  LAYER,ROW,COL  LAYER,ROW,COL  LAYER,ROW,COL
 ---------------------------------------------------------------------------
  1  0.1336E+06  0 -0.9430E+05  0 -0.9311E+05  0 -0.1494E+05  0   4375.    
   ( 21,  1, 89)  ( 19,  1, 89)  ( 19,  1, 89)  ( 19,  1, 89)  ( 17,  1, 88)
  0   2780.      0   2174.      0   671.5      1   552.6    
   ( 22,  1, 87)  ( 22,  1, 87)  ( 22,  1, 87)  ( 22,  1, 87)


 FLOW MODEL IS TRANSIENT
 FLOW MODEL CONTAINS CONSTANT-HEAD CELLS


 MAXIMUM STEPSIZE DURING WHICH ANY PARTICLE CANNOT MOVE MORE THAN ONE CELL
 =  12.82    (WHEN MIN. R.F.=1)  AT K=  17, I=   1, J=  90

 MAXIMUM STEPSIZE WHICH MEETS STABILITY CRITERION OF THE ADVECTION TERM
 (FOR PURE FINITE-DIFFERENCE OPTION, MIXELM=0) 
 =  8.021    (WHEN MIN. R.F.=1)  AT K=  16, I=   1, J=  90


 TOTAL NUMBER OF POINT SOURCES/SINKS PRESENT IN THE FLOW MODEL =    30

 MAXIMUM STEPSIZE WHICH MEETS STABILITY CRITERION OF THE SINK & SOURCE TERM
 =  12.18    (WHEN MIN. R.F.=1)  AT K=  17, I=   1, J=  91

 MAXIMUM STEPSIZE WHICH MEETS STABILITY CRITERION OF THE DISPERSION TERM
 =  4.016    (WHEN MIN. R.F.=1)  AT K=  17, I=   1, J=  90
     1 CALLS TO GCG PACKAGE FOR TRANSPORT TIME STEP 277 IN FLOW TIME STEP   1 STRESS PERIOD   1
     8 TOTAL ITERATIONS
     1 CALLS TO GCG PACKAGE FOR TRANSPORT TIME STEP 277 IN FLOW TIME STEP   1 STRESS PERIOD   1
     8 TOTAL ITERATIONS
 
 SOLVING FOR HEAD 


     2 CALLS TO PCG ROUTINE FOR TIME STEP   1 IN STRESS PERIOD    1
     9 TOTAL ITERATIONS

 MAXIMUM HEAD CHANGE FOR EACH ITERATION (1 INDICATES THE FIRST INNER ITERATION):

    HEAD CHANGE    HEAD CHANGE    HEAD CHANGE    HEAD CHANGE    HEAD CHANGE 
   LAYER,ROW,COL  LAYER,ROW,COL  LAYER,ROW,COL  LAYER,ROW,COL  LAYER,ROW,COL
 ---------------------------------------------------------------------------
  1 -0.1329E-01  0  0.3567E-02  0  0.2342E-02  0  0.7322E-02  0 -0.7956E-02
   ( 15,  1, 86)  ( 17,  1, 89)  (  8,  1, 12)  ( 11,  1, 37)  ( 11,  1, 37)
  0 -0.1735E-02  0  0.1084E-02  0  0.6943E-03  1 -0.5874E-03
   (  7,  1, 50)  ( 11,  1, 69)  ( 11,  1, 50)  ( 11,  1, 55)

 MAXIMUM RESIDUAL FOR EACH ITERATION (1 INDICATES THE FIRST INNER ITERATION):

    RESIDUAL       RESIDUAL       RESIDUAL       RESIDUAL       RESIDUAL    
   LAYER,ROW,COL  LAYER,ROW,COL  LAYER,ROW,COL  LAYER,ROW,COL  LAYER,ROW,COL
 ---------------------------------------------------------------------------
  1 -0.1299E+06  0  0.9084E+05  0  0.8893E+05  0  0.2263E+05  0   5741.    
   ( 21,  1, 89)  ( 19,  1, 89)  ( 19,  1, 89)  ( 19,  1, 89)  ( 17,  1, 87)
  0  -2825.      0  -2514.      0  -809.5      1  -691.9    
   ( 22,  1, 87)  ( 22,  1, 87)  ( 22,  1, 87)  ( 22,  1, 87)


 FLOW MODEL IS TRANSIENT
 FLOW MODEL CONTAINS CONSTANT-HEAD CELLS


 MAXIMUM STEPSIZE DURING WHICH ANY PARTICLE CANNOT MOVE MORE THAN ONE CELL
 =  13.21    (WHEN MIN. R.F.=1)  AT K=  17, I=   1, J=  90

 MAXIMUM STEPSIZE WHICH MEETS STABILITY CRITERION OF THE ADVECTION TERM
 (FOR PURE FINITE-DIFFERENCE OPTION, MIXELM=0) 
 =  8.001    (WHEN MIN. R.F.=1)  AT K=  16, I=   1, J=  90


 TOTAL NUMBER OF POINT SOURCES/SINKS PRESENT IN THE FLOW MODEL =    30

 MAXIMUM STEPSIZE WHICH MEETS STABILITY CRITERION OF THE SINK & SOURCE TERM
 =  12.18    (WHEN MIN. R.F.=1)  AT K=  17, I=   1, J=  91

 MAXIMUM STEPSIZE WHICH MEETS STABILITY CRITERION OF THE DISPERSION TERM
 =  4.363    (WHEN MIN. R.F.=1)  AT K=  17, I=   1, J=  90
     1 CALLS TO GCG PACKAGE FOR TRANSPORT TIME STEP 278 IN FLOW TIME STEP   1 STRESS PERIOD   1
     7 TOTAL ITERATIONS
     1 CALLS TO GCG PACKAGE FOR TRANSPORT TIME STEP 278 IN FLOW TIME STEP   1 STRESS PERIOD   1
     8 TOTAL ITERATIONS
 
 SOLVING FOR HEAD 


     2 CALLS TO PCG ROUTINE FOR TIME STEP   1 IN STRESS PERIOD    1
     8 TOTAL ITERATIONS

 MAXIMUM HEAD CHANGE FOR EACH ITERATION (1 INDICATES THE FIRST INNER ITERATION):

    HEAD CHANGE    HEAD CHANGE    HEAD CHANGE    HEAD CHANGE    HEAD CHANGE 
   LAYER,ROW,COL  LAYER,ROW,COL  LAYER,ROW,COL  LAYER,ROW,COL  LAYER,ROW,COL
 ---------------------------------------------------------------------------
  1  0.1347E-01  0 -0.3662E-02  0 -0.2378E-02  0  0.1277E-01  0 -0.1224E-01
   ( 15,  1, 86)  ( 17,  1, 89)  (  8,  1, 12)  ( 11,  1, 54)  ( 11,  1, 54)
  0  0.1470E-02  0  0.5650E-03  1 -0.4946E-03
   ( 11,  1, 50)  (  8,  1, 49)  (  8,  1, 47)

 MAXIMUM RESIDUAL FOR EACH ITERATION (1 INDICATES THE FIRST INNER ITERATION):

    RESIDUAL       RESIDUAL       RESIDUAL       RESIDUAL       RESIDUAL    
   LAYER,ROW,COL  LAYER,ROW,COL  LAYER,ROW,COL  LAYER,ROW,COL  LAYER,ROW,COL
 ---------------------------------------------------------------------------
  1  0.1303E+06  0 -0.9068E+05  0 -0.8933E+05  0 -0.3025E+05  0  -5484.    
   ( 21,  1, 89)  ( 19,  1, 89)  ( 19,  1, 89)  ( 19,  1, 89)  ( 17,  1, 87)
  0   2904.      0   2583.      1   2144.    
   ( 22,  1, 87)  ( 22,  1, 87)  ( 22,  1, 87)


 FLOW MODEL IS TRANSIENT
 FLOW MODEL CONTAINS CONSTANT-HEAD CELLS


 MAXIMUM STEPSIZE DURING WHICH ANY PARTICLE CANNOT MOVE MORE THAN ONE CELL
 =  12.85    (WHEN MIN. R.F.=1)  AT K=  17, I=   1, J=  90

 MAXIMUM STEPSIZE WHICH MEETS STABILITY CRITERION OF THE ADVECTION TERM
 (FOR PURE FINITE-DIFFERENCE OPTION, MIXELM=0) 
 =  8.028    (WHEN MIN. R.F.=1)  AT K=  16, I=   1, J=  90


 TOTAL NUMBER OF POINT SOURCES/SINKS PRESENT IN THE FLOW MODEL =    30

 MAXIMUM STEPSIZE WHICH MEETS STABILITY CRITERION OF THE SINK & SOURCE TERM
 =  12.21    (WHEN MIN. R.F.=1)  AT K=  17, I=   1, J=  91

 MAXIMUM STEPSIZE WHICH MEETS STABILITY CRITERION OF THE DISPERSION TERM
 =  4.033    (WHEN MIN. R.F.=1)  AT K=  17, I=   1, J=  90
     1 CALLS TO GCG PACKAGE FOR TRANSPORT TIME STEP 279 IN FLOW TIME STEP   1 STRESS PERIOD   1
     8 TOTAL ITERATIONS
     1 CALLS TO GCG PACKAGE FOR TRANSPORT TIME STEP 279 IN FLOW TIME STEP   1 STRESS PERIOD   1
     8 TOTAL ITERATIONS
 
 SOLVING FOR HEAD 


     2 CALLS TO PCG ROUTINE FOR TIME STEP   1 IN STRESS PERIOD    1
     9 TOTAL ITERATIONS

 MAXIMUM HEAD CHANGE FOR EACH ITERATION (1 INDICATES THE FIRST INNER ITERATION):

    HEAD CHANGE    HEAD CHANGE    HEAD CHANGE    HEAD CHANGE    HEAD CHANGE 
   LAYER,ROW,COL  LAYER,ROW,COL  LAYER,ROW,COL  LAYER,ROW,COL  LAYER,ROW,COL
 ---------------------------------------------------------------------------
  1 -0.1372E-01  0 -0.7533E-02  0  0.3590E-02  0  0.9428E-02  0 -0.6502E-02
   ( 15,  1, 86)  (  7,  1, 45)  (  7,  1, 12)  (  8,  1, 47)  (  8,  1, 47)
  0 -0.3395E-02  0  0.1621E-02  0  0.8377E-03  1 -0.6481E-03
   ( 11,  1, 54)  ( 11,  1, 54)  ( 11,  1, 70)  ( 11,  1, 70)

 MAXIMUM RESIDUAL FOR EACH ITERATION (1 INDICATES THE FIRST INNER ITERATION):

    RESIDUAL       RESIDUAL       RESIDUAL       RESIDUAL       RESIDUAL    
   LAYER,ROW,COL  LAYER,ROW,COL  LAYER,ROW,COL  LAYER,ROW,COL  LAYER,ROW,COL
 ---------------------------------------------------------------------------
  1 -0.1354E+06  0  0.9633E+05  0  0.9542E+05  0  0.7683E+05  0   6100.    
   ( 21,  1, 89)  ( 19,  1, 89)  ( 19,  1, 89)  ( 19,  1, 89)  ( 17,  1, 87)
  0  -2756.      0  -2592.      0  -1124.      1  -989.0    
   ( 22,  1, 87)  ( 22,  1, 87)  ( 22,  1, 87)  ( 22,  1, 87)


 FLOW MODEL IS TRANSIENT
 FLOW MODEL CONTAINS CONSTANT-HEAD CELLS


 MAXIMUM STEPSIZE DURING WHICH ANY PARTICLE CANNOT MOVE MORE THAN ONE CELL
 =  13.15    (WHEN MIN. R.F.=1)  AT K=  17, I=   1, J=  90

 MAXIMUM STEPSIZE WHICH MEETS STABILITY CRITERION OF THE ADVECTION TERM
 (FOR PURE FINITE-DIFFERENCE OPTION, MIXELM=0) 
 =  7.973    (WHEN MIN. R.F.=1)  AT K=  16, I=   1, J=  90


 TOTAL NUMBER OF POINT SOURCES/SINKS PRESENT IN THE FLOW MODEL =    30

 MAXIMUM STEPSIZE WHICH MEETS STABILITY CRITERION OF THE SINK & SOURCE TERM
 =  12.09    (WHEN MIN. R.F.=1)  AT K=  17, I=   1, J=  91

 MAXIMUM STEPSIZE WHICH MEETS STABILITY CRITERION OF THE DISPERSION TERM
 =  4.334    (WHEN MIN. R.F.=1)  AT K=  17, I=   1, J=  90
     1 CALLS TO GCG PACKAGE FOR TRANSPORT TIME STEP 280 IN FLOW TIME STEP   1 STRESS PERIOD   1
    10 TOTAL ITERATIONS
  MAXIMUM CONCENTRATION CHANGES FOR EACH ITERATION:
  MAX. CHANGE LAYER,ROW,COL MAX. CHANGE LAYER,ROW,COL MAX. CHANGE LAYER,ROW,COL MAX. CHANGE LAYER,ROW,COL MAX. CHANGE LAYER,ROW,COL
 ------------------------------------------------------------------------------------------------------------------------------------
   0.4896E-01 ( 20,  1, 87)  0.3300E-02 ( 19,  1, 87)  0.2149E-02 ( 18,  1, 87)  0.2131E-03 ( 16,  1, 88)  0.1434E-03 ( 16,  1, 89)
   0.2766E-04 ( 16,  1, 90)  0.3327E-05 ( 21,  1, 78)  0.1324E-05 ( 15,  1, 89)  0.1029E-05 ( 16,  1, 89)  0.1192E-06 ( 17,  1, 89)
     1 CALLS TO GCG PACKAGE FOR TRANSPORT TIME STEP 280 IN FLOW TIME STEP   1 STRESS PERIOD   1
     8 TOTAL ITERATIONS
  MAXIMUM CONCENTRATION CHANGES FOR EACH ITERATION:
  MAX. CHANGE LAYER,ROW,COL MAX. CHANGE LAYER,ROW,COL MAX. CHANGE LAYER,ROW,COL MAX. CHANGE LAYER,ROW,COL MAX. CHANGE LAYER,ROW,COL
 ------------------------------------------------------------------------------------------------------------------------------------
   0.5739E-01 ( 20,  1, 87)  0.5329E-02 ( 19,  1, 87)  0.2350E-02 ( 18,  1, 87)  0.5324E-03 ( 18,  1, 87)  0.1382E-03 ( 17,  1, 89)
   0.3901E-04 ( 17,  1, 90)  0.6405E-05 ( 17,  1, 90)  0.5804E-06 ( 18,  1, 90)



 >>>>>>>>>>>>>>>>>>>>>>>>>>>>>>>>>>>>>>>>>>>>>>>>>>>>>>>FOR COMPONENT NO. 01<<<<<<<<<<<<<<<<<<<<<<<<<<<<<<<<<<<<<<<<<<<<<<<<<<<<<<<


                                            -------------------------------------------
                                                      TRANSPORT STEP NO.  280
                                            -------------------------------------------

 TOTAL ELAPSED TIME SINCE BEGINNING OF SIMULATION =   14000.00    D   
 .....................................................................

                     CUMMULATIVE MASS BUDGETS AT END OF TRANSPORT STEP  280, TIME STEP    1, STRESS PERIOD    1
                     ------------------------------------------------------------------------------------------

                                                             IN                           OUT
                                                      ----------------             ----------------
                               CONSTANT CONCENTRATION:    0.000000                    0.000000    
                                        CONSTANT HEAD:   0.5542815E+09              -0.5540927E+09
                                                WELLS:    0.000000                    0.000000    
                                             RECHARGE:    0.000000                    0.000000    
                               1ST/0TH ORDER REACTION:    0.000000                    0.000000    
                                MASS STORAGE (SOLUTE):   0.7758545E+08              -0.7777442E+08
                            ---------------------------------------------------------------------------
                                              [TOTAL]:   0.6318676E+09 KG           -0.6318677E+09 KG  

                                                          NET (IN - OUT):   -134.2910    
                                                   DISCREPANCY (PERCENT):  -0.2125302E-04



 >>>>>>>>>>>>>>>>>>>>>>>>>>>>>>>>>>>>>>>>>>>>>>>>>>>>>>>FOR COMPONENT NO. 02<<<<<<<<<<<<<<<<<<<<<<<<<<<<<<<<<<<<<<<<<<<<<<<<<<<<<<<


                                            -------------------------------------------
                                                      TRANSPORT STEP NO.  280
                                            -------------------------------------------

 TOTAL ELAPSED TIME SINCE BEGINNING OF SIMULATION =   14000.00    D   
 .....................................................................

                     CUMMULATIVE MASS BUDGETS AT END OF TRANSPORT STEP  280, TIME STEP    1, STRESS PERIOD    1
                     ------------------------------------------------------------------------------------------

                                                             IN                           OUT
                                                      ----------------             ----------------
                               CONSTANT CONCENTRATION:    0.000000                    0.000000    
                                        CONSTANT HEAD:    0.000000                  -0.5566706E+11
                                                WELLS:    0.000000                    0.000000    
                                             RECHARGE:    0.000000                    0.000000    
                               1ST/0TH ORDER REACTION:   0.2317000E+12                0.000000    
                                MASS STORAGE (SOLUTE):   0.1386439E+11              -0.1898973E+12
                            ---------------------------------------------------------------------------
                                              [TOTAL]:   0.2455646E+12 KG           -0.2455646E+12 KG  

                                                          NET (IN - OUT):   -9155.214    
                                                   DISCREPANCY (PERCENT):  -0.3728230E-05
 
 SOLVING FOR HEAD 


     2 CALLS TO PCG ROUTINE FOR TIME STEP   1 IN STRESS PERIOD    1
     8 TOTAL ITERATIONS

 MAXIMUM HEAD CHANGE FOR EACH ITERATION (1 INDICATES THE FIRST INNER ITERATION):

    HEAD CHANGE    HEAD CHANGE    HEAD CHANGE    HEAD CHANGE    HEAD CHANGE 
   LAYER,ROW,COL  LAYER,ROW,COL  LAYER,ROW,COL  LAYER,ROW,COL  LAYER,ROW,COL
 ---------------------------------------------------------------------------
  1  0.1371E-01  0 -0.4053E-02  0 -0.3313E-02  0 -0.9493E-02  0  0.1069E-01
   ( 15,  1, 86)  ( 17,  1, 89)  (  8,  1, 12)  ( 11,  1, 49)  ( 11,  1, 49)
  0 -0.2067E-02  0  0.8518E-03  1 -0.8124E-03
   ( 11,  1, 52)  ( 11,  1, 55)  ( 11,  1, 55)

 MAXIMUM RESIDUAL FOR EACH ITERATION (1 INDICATES THE FIRST INNER ITERATION):

    RESIDUAL       RESIDUAL       RESIDUAL       RESIDUAL       RESIDUAL    
   LAYER,ROW,COL  LAYER,ROW,COL  LAYER,ROW,COL  LAYER,ROW,COL  LAYER,ROW,COL
 ---------------------------------------------------------------------------
  1  0.1338E+06  0 -0.9523E+05  0 -0.9431E+05  0 -0.2042E+05  0   4856.    
   ( 21,  1, 89)  ( 19,  1, 89)  ( 19,  1, 89)  ( 19,  1, 89)  ( 17,  1, 88)
  0   2775.      0   2384.      1   1988.    
   ( 22,  1, 87)  ( 22,  1, 87)  ( 22,  1, 87)


 FLOW MODEL IS TRANSIENT
 FLOW MODEL CONTAINS CONSTANT-HEAD CELLS


 MAXIMUM STEPSIZE DURING WHICH ANY PARTICLE CANNOT MOVE MORE THAN ONE CELL
 =  12.83    (WHEN MIN. R.F.=1)  AT K=  17, I=   1, J=  90

 MAXIMUM STEPSIZE WHICH MEETS STABILITY CRITERION OF THE ADVECTION TERM
 (FOR PURE FINITE-DIFFERENCE OPTION, MIXELM=0) 
 =  8.024    (WHEN MIN. R.F.=1)  AT K=  16, I=   1, J=  90


 TOTAL NUMBER OF POINT SOURCES/SINKS PRESENT IN THE FLOW MODEL =    30

 MAXIMUM STEPSIZE WHICH MEETS STABILITY CRITERION OF THE SINK & SOURCE TERM
 =  12.18    (WHEN MIN. R.F.=1)  AT K=  17, I=   1, J=  91

 MAXIMUM STEPSIZE WHICH MEETS STABILITY CRITERION OF THE DISPERSION TERM
 =  4.020    (WHEN MIN. R.F.=1)  AT K=  17, I=   1, J=  90
     1 CALLS TO GCG PACKAGE FOR TRANSPORT TIME STEP 281 IN FLOW TIME STEP   1 STRESS PERIOD   1
     8 TOTAL ITERATIONS
     1 CALLS TO GCG PACKAGE FOR TRANSPORT TIME STEP 281 IN FLOW TIME STEP   1 STRESS PERIOD   1
     8 TOTAL ITERATIONS
 
 SOLVING FOR HEAD 


     2 CALLS TO PCG ROUTINE FOR TIME STEP   1 IN STRESS PERIOD    1
     9 TOTAL ITERATIONS

 MAXIMUM HEAD CHANGE FOR EACH ITERATION (1 INDICATES THE FIRST INNER ITERATION):

    HEAD CHANGE    HEAD CHANGE    HEAD CHANGE    HEAD CHANGE    HEAD CHANGE 
   LAYER,ROW,COL  LAYER,ROW,COL  LAYER,ROW,COL  LAYER,ROW,COL  LAYER,ROW,COL
 ---------------------------------------------------------------------------
  1 -0.1365E-01  0 -0.6945E-02  0  0.4083E-02  0  0.1699E-01  0 -0.1496E-01
   ( 15,  1, 86)  ( 11,  1, 55)  (  8,  1, 12)  ( 11,  1, 55)  ( 11,  1, 55)
  0  0.3315E-02  0 -0.1430E-02  0  0.4974E-03  1  0.4287E-03
   ( 11,  1, 49)  ( 11,  1, 49)  ( 11,  1, 38)  (  8,  1, 44)

 MAXIMUM RESIDUAL FOR EACH ITERATION (1 INDICATES THE FIRST INNER ITERATION):

    RESIDUAL       RESIDUAL       RESIDUAL       RESIDUAL       RESIDUAL    
   LAYER,ROW,COL  LAYER,ROW,COL  LAYER,ROW,COL  LAYER,ROW,COL  LAYER,ROW,COL
 ---------------------------------------------------------------------------
  1 -0.1319E+06  0  0.9255E+05  0  0.9184E+05  0  0.5493E+05  0   5538.    
   ( 21,  1, 89)  ( 19,  1, 89)  ( 19,  1, 89)  ( 19,  1, 89)  ( 17,  1, 87)
  0  -2751.      0  -2579.      0  -1189.      1  -1076.    
   ( 17,  1, 88)  ( 22,  1, 87)  ( 22,  1, 87)  ( 22,  1, 87)


 FLOW MODEL IS TRANSIENT
 FLOW MODEL CONTAINS CONSTANT-HEAD CELLS


 MAXIMUM STEPSIZE DURING WHICH ANY PARTICLE CANNOT MOVE MORE THAN ONE CELL
 =  13.18    (WHEN MIN. R.F.=1)  AT K=  17, I=   1, J=  90

 MAXIMUM STEPSIZE WHICH MEETS STABILITY CRITERION OF THE ADVECTION TERM
 (FOR PURE FINITE-DIFFERENCE OPTION, MIXELM=0) 
 =  7.984    (WHEN MIN. R.F.=1)  AT K=  16, I=   1, J=  90


 TOTAL NUMBER OF POINT SOURCES/SINKS PRESENT IN THE FLOW MODEL =    30

 MAXIMUM STEPSIZE WHICH MEETS STABILITY CRITERION OF THE SINK & SOURCE TERM
 =  12.12    (WHEN MIN. R.F.=1)  AT K=  17, I=   1, J=  91

 MAXIMUM STEPSIZE WHICH MEETS STABILITY CRITERION OF THE DISPERSION TERM
 =  4.354    (WHEN MIN. R.F.=1)  AT K=  17, I=   1, J=  90
     1 CALLS TO GCG PACKAGE FOR TRANSPORT TIME STEP 282 IN FLOW TIME STEP   1 STRESS PERIOD   1
    10 TOTAL ITERATIONS
     1 CALLS TO GCG PACKAGE FOR TRANSPORT TIME STEP 282 IN FLOW TIME STEP   1 STRESS PERIOD   1
     8 TOTAL ITERATIONS
 
 SOLVING FOR HEAD 


     2 CALLS TO PCG ROUTINE FOR TIME STEP   1 IN STRESS PERIOD    1
     9 TOTAL ITERATIONS

 MAXIMUM HEAD CHANGE FOR EACH ITERATION (1 INDICATES THE FIRST INNER ITERATION):

    HEAD CHANGE    HEAD CHANGE    HEAD CHANGE    HEAD CHANGE    HEAD CHANGE 
   LAYER,ROW,COL  LAYER,ROW,COL  LAYER,ROW,COL  LAYER,ROW,COL  LAYER,ROW,COL
 ---------------------------------------------------------------------------
  1  0.1361E-01  0 -0.4117E-02  0 -0.3273E-02  0 -0.8003E-02  0  0.8272E-02
   ( 15,  1, 86)  ( 17,  1, 89)  (  8,  1, 12)  (  7,  1, 47)  (  7,  1, 47)
  0 -0.1437E-02  0 -0.1162E-02  0  0.5452E-03  1  0.7270E-03
   ( 11,  1, 68)  ( 11,  1, 54)  ( 11,  1, 54)  ( 11,  1, 70)

 MAXIMUM RESIDUAL FOR EACH ITERATION (1 INDICATES THE FIRST INNER ITERATION):

    RESIDUAL       RESIDUAL       RESIDUAL       RESIDUAL       RESIDUAL    
   LAYER,ROW,COL  LAYER,ROW,COL  LAYER,ROW,COL  LAYER,ROW,COL  LAYER,ROW,COL
 ---------------------------------------------------------------------------
  1  0.1339E+06  0 -0.9508E+05  0 -0.9416E+05  0 -0.2896E+05  0  -5734.    
   ( 21,  1, 89)  ( 19,  1, 89)  ( 19,  1, 89)  ( 19,  1, 89)  ( 17,  1, 87)
  0   2783.      0   2051.      0   767.0      1   641.3    
   ( 22,  1, 87)  ( 22,  1, 87)  ( 22,  1, 87)  ( 22,  1, 87)


 FLOW MODEL IS TRANSIENT
 FLOW MODEL CONTAINS CONSTANT-HEAD CELLS


 MAXIMUM STEPSIZE DURING WHICH ANY PARTICLE CANNOT MOVE MORE THAN ONE CELL
 =  12.85    (WHEN MIN. R.F.=1)  AT K=  17, I=   1, J=  90

 MAXIMUM STEPSIZE WHICH MEETS STABILITY CRITERION OF THE ADVECTION TERM
 (FOR PURE FINITE-DIFFERENCE OPTION, MIXELM=0) 
 =  8.034    (WHEN MIN. R.F.=1)  AT K=  16, I=   1, J=  90


 TOTAL NUMBER OF POINT SOURCES/SINKS PRESENT IN THE FLOW MODEL =    30

 MAXIMUM STEPSIZE WHICH MEETS STABILITY CRITERION OF THE SINK & SOURCE TERM
 =  12.20    (WHEN MIN. R.F.=1)  AT K=  17, I=   1, J=  91

 MAXIMUM STEPSIZE WHICH MEETS STABILITY CRITERION OF THE DISPERSION TERM
 =  4.026    (WHEN MIN. R.F.=1)  AT K=  17, I=   1, J=  90
     1 CALLS TO GCG PACKAGE FOR TRANSPORT TIME STEP 283 IN FLOW TIME STEP   1 STRESS PERIOD   1
     8 TOTAL ITERATIONS
     1 CALLS TO GCG PACKAGE FOR TRANSPORT TIME STEP 283 IN FLOW TIME STEP   1 STRESS PERIOD   1
     8 TOTAL ITERATIONS
 
 SOLVING FOR HEAD 


     2 CALLS TO PCG ROUTINE FOR TIME STEP   1 IN STRESS PERIOD    1
     9 TOTAL ITERATIONS

 MAXIMUM HEAD CHANGE FOR EACH ITERATION (1 INDICATES THE FIRST INNER ITERATION):

    HEAD CHANGE    HEAD CHANGE    HEAD CHANGE    HEAD CHANGE    HEAD CHANGE 
   LAYER,ROW,COL  LAYER,ROW,COL  LAYER,ROW,COL  LAYER,ROW,COL  LAYER,ROW,COL
 ---------------------------------------------------------------------------
  1 -0.1341E-01  0  0.3738E-02  0  0.2514E-02  0  0.1155E-01  0 -0.1208E-01
   ( 15,  1, 86)  ( 17,  1, 89)  (  8,  1, 12)  ( 11,  1, 52)  ( 11,  1, 52)
  0  0.1518E-02  0  0.1077E-02  0  0.5472E-03  1 -0.4932E-03
   ( 11,  1, 54)  ( 11,  1, 68)  ( 11,  1, 38)  ( 11,  1, 68)

 MAXIMUM RESIDUAL FOR EACH ITERATION (1 INDICATES THE FIRST INNER ITERATION):

    RESIDUAL       RESIDUAL       RESIDUAL       RESIDUAL       RESIDUAL    
   LAYER,ROW,COL  LAYER,ROW,COL  LAYER,ROW,COL  LAYER,ROW,COL  LAYER,ROW,COL
 ---------------------------------------------------------------------------
  1 -0.1312E+06  0  0.9210E+05  0  0.9087E+05  0  0.2892E+05  0   5646.    
   ( 21,  1, 89)  ( 19,  1, 89)  ( 19,  1, 89)  ( 19,  1, 89)  ( 17,  1, 87)
  0  -2842.      0  -2142.      0  -811.8      1  -687.2    
   ( 22,  1, 87)  ( 22,  1, 87)  ( 22,  1, 87)  ( 22,  1, 87)


 FLOW MODEL IS TRANSIENT
 FLOW MODEL CONTAINS CONSTANT-HEAD CELLS


 MAXIMUM STEPSIZE DURING WHICH ANY PARTICLE CANNOT MOVE MORE THAN ONE CELL
 =  13.23    (WHEN MIN. R.F.=1)  AT K=  17, I=   1, J=  90

 MAXIMUM STEPSIZE WHICH MEETS STABILITY CRITERION OF THE ADVECTION TERM
 (FOR PURE FINITE-DIFFERENCE OPTION, MIXELM=0) 
 =  8.006    (WHEN MIN. R.F.=1)  AT K=  16, I=   1, J=  90


 TOTAL NUMBER OF POINT SOURCES/SINKS PRESENT IN THE FLOW MODEL =    30

 MAXIMUM STEPSIZE WHICH MEETS STABILITY CRITERION OF THE SINK & SOURCE TERM
 =  12.18    (WHEN MIN. R.F.=1)  AT K=  17, I=   1, J=  91

 MAXIMUM STEPSIZE WHICH MEETS STABILITY CRITERION OF THE DISPERSION TERM
 =  4.373    (WHEN MIN. R.F.=1)  AT K=  17, I=   1, J=  90
     1 CALLS TO GCG PACKAGE FOR TRANSPORT TIME STEP 284 IN FLOW TIME STEP   1 STRESS PERIOD   1
     9 TOTAL ITERATIONS
     1 CALLS TO GCG PACKAGE FOR TRANSPORT TIME STEP 284 IN FLOW TIME STEP   1 STRESS PERIOD   1
     8 TOTAL ITERATIONS
 
 SOLVING FOR HEAD 


     2 CALLS TO PCG ROUTINE FOR TIME STEP   1 IN STRESS PERIOD    1
     9 TOTAL ITERATIONS

 MAXIMUM HEAD CHANGE FOR EACH ITERATION (1 INDICATES THE FIRST INNER ITERATION):

    HEAD CHANGE    HEAD CHANGE    HEAD CHANGE    HEAD CHANGE    HEAD CHANGE 
   LAYER,ROW,COL  LAYER,ROW,COL  LAYER,ROW,COL  LAYER,ROW,COL  LAYER,ROW,COL
 ---------------------------------------------------------------------------
  1  0.1341E-01  0 -0.3696E-02  0 -0.2332E-02  0 -0.8783E-02  0  0.8919E-02
   ( 15,  1, 86)  ( 17,  1, 89)  (  7,  1, 12)  (  8,  1, 50)  (  9,  1, 50)
  0  0.1665E-02  0 -0.1584E-02  0 -0.8209E-03  1  0.7552E-03
   ( 11,  1, 54)  ( 11,  1, 54)  ( 11,  1, 70)  ( 11,  1, 70)

 MAXIMUM RESIDUAL FOR EACH ITERATION (1 INDICATES THE FIRST INNER ITERATION):

    RESIDUAL       RESIDUAL       RESIDUAL       RESIDUAL       RESIDUAL    
   LAYER,ROW,COL  LAYER,ROW,COL  LAYER,ROW,COL  LAYER,ROW,COL  LAYER,ROW,COL
 ---------------------------------------------------------------------------
  1  0.1323E+06  0 -0.9243E+05  0 -0.9026E+05  0 -0.3937E+05  0  -6018.    
   ( 21,  1, 89)  ( 19,  1, 89)  ( 19,  1, 89)  ( 19,  1, 89)  ( 17,  1, 87)
  0   2903.      0   2440.      0   855.8      1   744.4    
   ( 22,  1, 87)  ( 22,  1, 87)  ( 22,  1, 87)  ( 22,  1, 87)


 FLOW MODEL IS TRANSIENT
 FLOW MODEL CONTAINS CONSTANT-HEAD CELLS


 MAXIMUM STEPSIZE DURING WHICH ANY PARTICLE CANNOT MOVE MORE THAN ONE CELL
 =  12.86    (WHEN MIN. R.F.=1)  AT K=  17, I=   1, J=  90

 MAXIMUM STEPSIZE WHICH MEETS STABILITY CRITERION OF THE ADVECTION TERM
 (FOR PURE FINITE-DIFFERENCE OPTION, MIXELM=0) 
 =  8.036    (WHEN MIN. R.F.=1)  AT K=  16, I=   1, J=  90


 TOTAL NUMBER OF POINT SOURCES/SINKS PRESENT IN THE FLOW MODEL =    30

 MAXIMUM STEPSIZE WHICH MEETS STABILITY CRITERION OF THE SINK & SOURCE TERM
 =  12.21    (WHEN MIN. R.F.=1)  AT K=  17, I=   1, J=  91

 MAXIMUM STEPSIZE WHICH MEETS STABILITY CRITERION OF THE DISPERSION TERM
 =  4.035    (WHEN MIN. R.F.=1)  AT K=  17, I=   1, J=  90
     1 CALLS TO GCG PACKAGE FOR TRANSPORT TIME STEP 285 IN FLOW TIME STEP   1 STRESS PERIOD   1
     8 TOTAL ITERATIONS
  MAXIMUM CONCENTRATION CHANGES FOR EACH ITERATION:
  MAX. CHANGE LAYER,ROW,COL MAX. CHANGE LAYER,ROW,COL MAX. CHANGE LAYER,ROW,COL MAX. CHANGE LAYER,ROW,COL MAX. CHANGE LAYER,ROW,COL
 ------------------------------------------------------------------------------------------------------------------------------------
   0.5262E-01 ( 20,  1, 87)  0.4193E-02 ( 19,  1, 89)  0.2158E-02 ( 17,  1, 86)  0.4786E-03 ( 20,  1, 89)  0.9604E-04 ( 16,  1, 89)
   0.1967E-04 ( 20,  1, 89)  0.1824E-04 ( 16,  1, 90)  0.7589E-06 ( 17,  1, 90)
     1 CALLS TO GCG PACKAGE FOR TRANSPORT TIME STEP 285 IN FLOW TIME STEP   1 STRESS PERIOD   1
     8 TOTAL ITERATIONS
  MAXIMUM CONCENTRATION CHANGES FOR EACH ITERATION:
  MAX. CHANGE LAYER,ROW,COL MAX. CHANGE LAYER,ROW,COL MAX. CHANGE LAYER,ROW,COL MAX. CHANGE LAYER,ROW,COL MAX. CHANGE LAYER,ROW,COL
 ------------------------------------------------------------------------------------------------------------------------------------
   0.6199E-01 ( 20,  1, 87)  0.4394E-02 ( 19,  1, 86)  0.2087E-02 ( 18,  1, 86)  0.7623E-03 ( 19,  1, 89)  0.1306E-03 ( 16,  1, 89)
   0.3952E-04 ( 23,  1, 87)  0.1446E-04 ( 17,  1, 90)  0.9787E-06 ( 17,  1, 90)
 
 SOLVING FOR HEAD 


     2 CALLS TO PCG ROUTINE FOR TIME STEP   1 IN STRESS PERIOD    1
     9 TOTAL ITERATIONS

 MAXIMUM HEAD CHANGE FOR EACH ITERATION (1 INDICATES THE FIRST INNER ITERATION):

    HEAD CHANGE    HEAD CHANGE    HEAD CHANGE    HEAD CHANGE    HEAD CHANGE 
   LAYER,ROW,COL  LAYER,ROW,COL  LAYER,ROW,COL  LAYER,ROW,COL  LAYER,ROW,COL
 ---------------------------------------------------------------------------
  1 -0.1346E-01  0  0.3689E-02  0  0.2358E-02  0  0.1015E-01  0 -0.1105E-01
   ( 15,  1, 86)  ( 17,  1, 89)  (  8,  1, 12)  ( 11,  1, 52)  ( 11,  1, 53)
  0  0.1726E-02  0  0.1176E-02  0  0.5438E-03  1 -0.5584E-03
   ( 11,  1, 54)  ( 11,  1, 59)  ( 11,  1, 43)  ( 11,  1, 70)

 MAXIMUM RESIDUAL FOR EACH ITERATION (1 INDICATES THE FIRST INNER ITERATION):

    RESIDUAL       RESIDUAL       RESIDUAL       RESIDUAL       RESIDUAL    
   LAYER,ROW,COL  LAYER,ROW,COL  LAYER,ROW,COL  LAYER,ROW,COL  LAYER,ROW,COL
 ---------------------------------------------------------------------------
  1 -0.1337E+06  0  0.9438E+05  0  0.9257E+05  0  0.2787E+05  0   5462.    
   ( 21,  1, 89)  ( 19,  1, 89)  ( 19,  1, 89)  ( 19,  1, 89)  ( 17,  1, 87)
  0  -2818.      0  -2240.      0  -902.8      1  -774.6    
   ( 22,  1, 87)  ( 22,  1, 87)  ( 22,  1, 87)  ( 22,  1, 87)


 FLOW MODEL IS TRANSIENT
 FLOW MODEL CONTAINS CONSTANT-HEAD CELLS


 MAXIMUM STEPSIZE DURING WHICH ANY PARTICLE CANNOT MOVE MORE THAN ONE CELL
 =  13.21    (WHEN MIN. R.F.=1)  AT K=  17, I=   1, J=  90

 MAXIMUM STEPSIZE WHICH MEETS STABILITY CRITERION OF THE ADVECTION TERM
 (FOR PURE FINITE-DIFFERENCE OPTION, MIXELM=0) 
 =  8.000    (WHEN MIN. R.F.=1)  AT K=  16, I=   1, J=  90


 TOTAL NUMBER OF POINT SOURCES/SINKS PRESENT IN THE FLOW MODEL =    30

 MAXIMUM STEPSIZE WHICH MEETS STABILITY CRITERION OF THE SINK & SOURCE TERM
 =  12.17    (WHEN MIN. R.F.=1)  AT K=  17, I=   1, J=  91

 MAXIMUM STEPSIZE WHICH MEETS STABILITY CRITERION OF THE DISPERSION TERM
 =  4.358    (WHEN MIN. R.F.=1)  AT K=  17, I=   1, J=  90
     1 CALLS TO GCG PACKAGE FOR TRANSPORT TIME STEP 286 IN FLOW TIME STEP   1 STRESS PERIOD   1
     9 TOTAL ITERATIONS
     1 CALLS TO GCG PACKAGE FOR TRANSPORT TIME STEP 286 IN FLOW TIME STEP   1 STRESS PERIOD   1
     8 TOTAL ITERATIONS
 
 SOLVING FOR HEAD 


     2 CALLS TO PCG ROUTINE FOR TIME STEP   1 IN STRESS PERIOD    1
     9 TOTAL ITERATIONS

 MAXIMUM HEAD CHANGE FOR EACH ITERATION (1 INDICATES THE FIRST INNER ITERATION):

    HEAD CHANGE    HEAD CHANGE    HEAD CHANGE    HEAD CHANGE    HEAD CHANGE 
   LAYER,ROW,COL  LAYER,ROW,COL  LAYER,ROW,COL  LAYER,ROW,COL  LAYER,ROW,COL
 ---------------------------------------------------------------------------
  1  0.1354E-01  0 -0.3667E-02  0 -0.2320E-02  0 -0.9022E-02  0  0.8893E-02
   ( 15,  1, 86)  ( 17,  1, 89)  (  7,  1, 12)  ( 10,  1, 50)  ( 10,  1, 50)
  0  0.1498E-02  0 -0.1433E-02  0 -0.9083E-03  1  0.7080E-03
   ( 11,  1, 54)  ( 11,  1, 54)  ( 11,  1, 70)  ( 11,  1, 70)

 MAXIMUM RESIDUAL FOR EACH ITERATION (1 INDICATES THE FIRST INNER ITERATION):

    RESIDUAL       RESIDUAL       RESIDUAL       RESIDUAL       RESIDUAL    
   LAYER,ROW,COL  LAYER,ROW,COL  LAYER,ROW,COL  LAYER,ROW,COL  LAYER,ROW,COL
 ---------------------------------------------------------------------------
  1  0.1318E+06  0 -0.9230E+05  0 -0.9066E+05  0 -0.4108E+05  0  -5957.    
   ( 21,  1, 89)  ( 19,  1, 89)  ( 19,  1, 89)  ( 19,  1, 89)  ( 17,  1, 87)
  0   2911.      0   2411.      0   864.6      1   748.3    
   ( 22,  1, 87)  ( 22,  1, 87)  ( 22,  1, 87)  ( 22,  1, 87)


 FLOW MODEL IS TRANSIENT
 FLOW MODEL CONTAINS CONSTANT-HEAD CELLS


 MAXIMUM STEPSIZE DURING WHICH ANY PARTICLE CANNOT MOVE MORE THAN ONE CELL
 =  12.87    (WHEN MIN. R.F.=1)  AT K=  17, I=   1, J=  90

 MAXIMUM STEPSIZE WHICH MEETS STABILITY CRITERION OF THE ADVECTION TERM
 (FOR PURE FINITE-DIFFERENCE OPTION, MIXELM=0) 
 =  8.036    (WHEN MIN. R.F.=1)  AT K=  16, I=   1, J=  90


 TOTAL NUMBER OF POINT SOURCES/SINKS PRESENT IN THE FLOW MODEL =    30

 MAXIMUM STEPSIZE WHICH MEETS STABILITY CRITERION OF THE SINK & SOURCE TERM
 =  12.21    (WHEN MIN. R.F.=1)  AT K=  17, I=   1, J=  91

 MAXIMUM STEPSIZE WHICH MEETS STABILITY CRITERION OF THE DISPERSION TERM
 =  4.035    (WHEN MIN. R.F.=1)  AT K=  17, I=   1, J=  90
     1 CALLS TO GCG PACKAGE FOR TRANSPORT TIME STEP 287 IN FLOW TIME STEP   1 STRESS PERIOD   1
     8 TOTAL ITERATIONS
     1 CALLS TO GCG PACKAGE FOR TRANSPORT TIME STEP 287 IN FLOW TIME STEP   1 STRESS PERIOD   1
     8 TOTAL ITERATIONS
 
 SOLVING FOR HEAD 


     2 CALLS TO PCG ROUTINE FOR TIME STEP   1 IN STRESS PERIOD    1
     9 TOTAL ITERATIONS

 MAXIMUM HEAD CHANGE FOR EACH ITERATION (1 INDICATES THE FIRST INNER ITERATION):

    HEAD CHANGE    HEAD CHANGE    HEAD CHANGE    HEAD CHANGE    HEAD CHANGE 
   LAYER,ROW,COL  LAYER,ROW,COL  LAYER,ROW,COL  LAYER,ROW,COL  LAYER,ROW,COL
 ---------------------------------------------------------------------------
  1 -0.1346E-01  0  0.3661E-02  0  0.2343E-02  0  0.1059E-01  0 -0.1104E-01
   ( 15,  1, 86)  ( 17,  1, 89)  (  8,  1, 12)  ( 11,  1, 51)  ( 11,  1, 51)
  0  0.1830E-02  0  0.1120E-02  0  0.5407E-03  1 -0.5361E-03
   ( 11,  1, 54)  ( 11,  1, 59)  ( 11,  1, 41)  ( 11,  1, 70)

 MAXIMUM RESIDUAL FOR EACH ITERATION (1 INDICATES THE FIRST INNER ITERATION):

    RESIDUAL       RESIDUAL       RESIDUAL       RESIDUAL       RESIDUAL    
   LAYER,ROW,COL  LAYER,ROW,COL  LAYER,ROW,COL  LAYER,ROW,COL  LAYER,ROW,COL
 ---------------------------------------------------------------------------
  1 -0.1324E+06  0  0.9319E+05  0  0.9144E+05  0  0.2825E+05  0   5430.    
   ( 21,  1, 89)  ( 19,  1, 89)  ( 19,  1, 89)  ( 19,  1, 89)  ( 17,  1, 87)
  0  -2850.      0  -2298.      0  -922.1      1  -800.6    
   ( 22,  1, 87)  ( 22,  1, 87)  ( 22,  1, 87)  ( 22,  1, 87)


 FLOW MODEL IS TRANSIENT
 FLOW MODEL CONTAINS CONSTANT-HEAD CELLS


 MAXIMUM STEPSIZE DURING WHICH ANY PARTICLE CANNOT MOVE MORE THAN ONE CELL
 =  13.20    (WHEN MIN. R.F.=1)  AT K=  17, I=   1, J=  90

 MAXIMUM STEPSIZE WHICH MEETS STABILITY CRITERION OF THE ADVECTION TERM
 (FOR PURE FINITE-DIFFERENCE OPTION, MIXELM=0) 
 =  8.000    (WHEN MIN. R.F.=1)  AT K=  16, I=   1, J=  90


 TOTAL NUMBER OF POINT SOURCES/SINKS PRESENT IN THE FLOW MODEL =    30

 MAXIMUM STEPSIZE WHICH MEETS STABILITY CRITERION OF THE SINK & SOURCE TERM
 =  12.17    (WHEN MIN. R.F.=1)  AT K=  17, I=   1, J=  91

 MAXIMUM STEPSIZE WHICH MEETS STABILITY CRITERION OF THE DISPERSION TERM
 =  4.355    (WHEN MIN. R.F.=1)  AT K=  17, I=   1, J=  90
     1 CALLS TO GCG PACKAGE FOR TRANSPORT TIME STEP 288 IN FLOW TIME STEP   1 STRESS PERIOD   1
     9 TOTAL ITERATIONS
     1 CALLS TO GCG PACKAGE FOR TRANSPORT TIME STEP 288 IN FLOW TIME STEP   1 STRESS PERIOD   1
     8 TOTAL ITERATIONS
 
 SOLVING FOR HEAD 


     2 CALLS TO PCG ROUTINE FOR TIME STEP   1 IN STRESS PERIOD    1
     9 TOTAL ITERATIONS

 MAXIMUM HEAD CHANGE FOR EACH ITERATION (1 INDICATES THE FIRST INNER ITERATION):

    HEAD CHANGE    HEAD CHANGE    HEAD CHANGE    HEAD CHANGE    HEAD CHANGE 
   LAYER,ROW,COL  LAYER,ROW,COL  LAYER,ROW,COL  LAYER,ROW,COL  LAYER,ROW,COL
 ---------------------------------------------------------------------------
  1  0.1353E-01  0 -0.3648E-02  0 -0.2316E-02  0 -0.8954E-02  0  0.8879E-02
   ( 15,  1, 86)  ( 17,  1, 89)  (  7,  1, 12)  ( 10,  1, 50)  ( 10,  1, 50)
  0  0.1401E-02  0 -0.1481E-02  0 -0.8505E-03  1  0.7002E-03
   ( 11,  1, 54)  ( 11,  1, 54)  ( 11,  1, 70)  ( 11,  1, 70)

 MAXIMUM RESIDUAL FOR EACH ITERATION (1 INDICATES THE FIRST INNER ITERATION):

    RESIDUAL       RESIDUAL       RESIDUAL       RESIDUAL       RESIDUAL    
   LAYER,ROW,COL  LAYER,ROW,COL  LAYER,ROW,COL  LAYER,ROW,COL  LAYER,ROW,COL
 ---------------------------------------------------------------------------
  1  0.1315E+06  0 -0.9224E+05  0 -0.9059E+05  0 -0.3971E+05  0  -5956.    
   ( 21,  1, 89)  ( 19,  1, 89)  ( 19,  1, 89)  ( 19,  1, 89)  ( 17,  1, 87)
  0   2897.      0   2350.      0   856.7      1   734.8    
   ( 22,  1, 87)  ( 22,  1, 87)  ( 22,  1, 87)  ( 22,  1, 87)


 FLOW MODEL IS TRANSIENT
 FLOW MODEL CONTAINS CONSTANT-HEAD CELLS


 MAXIMUM STEPSIZE DURING WHICH ANY PARTICLE CANNOT MOVE MORE THAN ONE CELL
 =  12.87    (WHEN MIN. R.F.=1)  AT K=  17, I=   1, J=  90

 MAXIMUM STEPSIZE WHICH MEETS STABILITY CRITERION OF THE ADVECTION TERM
 (FOR PURE FINITE-DIFFERENCE OPTION, MIXELM=0) 
 =  8.036    (WHEN MIN. R.F.=1)  AT K=  16, I=   1, J=  90


 TOTAL NUMBER OF POINT SOURCES/SINKS PRESENT IN THE FLOW MODEL =    30

 MAXIMUM STEPSIZE WHICH MEETS STABILITY CRITERION OF THE SINK & SOURCE TERM
 =  12.21    (WHEN MIN. R.F.=1)  AT K=  17, I=   1, J=  91

 MAXIMUM STEPSIZE WHICH MEETS STABILITY CRITERION OF THE DISPERSION TERM
 =  4.036    (WHEN MIN. R.F.=1)  AT K=  17, I=   1, J=  90
     1 CALLS TO GCG PACKAGE FOR TRANSPORT TIME STEP 289 IN FLOW TIME STEP   1 STRESS PERIOD   1
     8 TOTAL ITERATIONS
     1 CALLS TO GCG PACKAGE FOR TRANSPORT TIME STEP 289 IN FLOW TIME STEP   1 STRESS PERIOD   1
     8 TOTAL ITERATIONS
 
 SOLVING FOR HEAD 


     2 CALLS TO PCG ROUTINE FOR TIME STEP   1 IN STRESS PERIOD    1
     9 TOTAL ITERATIONS

 MAXIMUM HEAD CHANGE FOR EACH ITERATION (1 INDICATES THE FIRST INNER ITERATION):

    HEAD CHANGE    HEAD CHANGE    HEAD CHANGE    HEAD CHANGE    HEAD CHANGE 
   LAYER,ROW,COL  LAYER,ROW,COL  LAYER,ROW,COL  LAYER,ROW,COL  LAYER,ROW,COL
 ---------------------------------------------------------------------------
  1 -0.1347E-01  0  0.3647E-02  0  0.2337E-02  0  0.1076E-01  0 -0.1115E-01
   ( 15,  1, 86)  ( 17,  1, 89)  (  8,  1, 12)  ( 11,  1, 51)  ( 11,  1, 51)
  0  0.1785E-02  0  0.1175E-02  0  0.5397E-03  1 -0.5782E-03
   ( 11,  1, 54)  ( 11,  1, 70)  ( 11,  1, 41)  ( 11,  1, 70)

 MAXIMUM RESIDUAL FOR EACH ITERATION (1 INDICATES THE FIRST INNER ITERATION):

    RESIDUAL       RESIDUAL       RESIDUAL       RESIDUAL       RESIDUAL    
   LAYER,ROW,COL  LAYER,ROW,COL  LAYER,ROW,COL  LAYER,ROW,COL  LAYER,ROW,COL
 ---------------------------------------------------------------------------
  1 -0.1318E+06  0  0.9254E+05  0  0.9085E+05  0  0.2885E+05  0   5428.    
   ( 21,  1, 89)  ( 19,  1, 89)  ( 19,  1, 89)  ( 19,  1, 89)  ( 17,  1, 87)
  0  -2866.      0  -2317.      0  -915.2      1  -797.0    
   ( 22,  1, 87)  ( 22,  1, 87)  ( 22,  1, 87)  ( 22,  1, 87)


 FLOW MODEL IS TRANSIENT
 FLOW MODEL CONTAINS CONSTANT-HEAD CELLS


 MAXIMUM STEPSIZE DURING WHICH ANY PARTICLE CANNOT MOVE MORE THAN ONE CELL
 =  13.20    (WHEN MIN. R.F.=1)  AT K=  17, I=   1, J=  90

 MAXIMUM STEPSIZE WHICH MEETS STABILITY CRITERION OF THE ADVECTION TERM
 (FOR PURE FINITE-DIFFERENCE OPTION, MIXELM=0) 
 =  8.001    (WHEN MIN. R.F.=1)  AT K=  16, I=   1, J=  90


 TOTAL NUMBER OF POINT SOURCES/SINKS PRESENT IN THE FLOW MODEL =    30

 MAXIMUM STEPSIZE WHICH MEETS STABILITY CRITERION OF THE SINK & SOURCE TERM
 =  12.17    (WHEN MIN. R.F.=1)  AT K=  17, I=   1, J=  91

 MAXIMUM STEPSIZE WHICH MEETS STABILITY CRITERION OF THE DISPERSION TERM
 =  4.353    (WHEN MIN. R.F.=1)  AT K=  17, I=   1, J=  90
     1 CALLS TO GCG PACKAGE FOR TRANSPORT TIME STEP 290 IN FLOW TIME STEP   1 STRESS PERIOD   1
     9 TOTAL ITERATIONS
  MAXIMUM CONCENTRATION CHANGES FOR EACH ITERATION:
  MAX. CHANGE LAYER,ROW,COL MAX. CHANGE LAYER,ROW,COL MAX. CHANGE LAYER,ROW,COL MAX. CHANGE LAYER,ROW,COL MAX. CHANGE LAYER,ROW,COL
 ------------------------------------------------------------------------------------------------------------------------------------
   0.4937E-01 ( 20,  1, 87)  0.3319E-02 ( 19,  1, 87)  0.2215E-02 ( 18,  1, 87)  0.2160E-03 ( 16,  1, 88)  0.1408E-03 ( 16,  1, 89)
   0.2977E-04 ( 16,  1, 90)  0.1757E-05 ( 21,  1, 78)  0.2945E-05 ( 21,  1, 78)  0.7518E-06 ( 16,  1, 89)
     1 CALLS TO GCG PACKAGE FOR TRANSPORT TIME STEP 290 IN FLOW TIME STEP   1 STRESS PERIOD   1
     8 TOTAL ITERATIONS
  MAXIMUM CONCENTRATION CHANGES FOR EACH ITERATION:
  MAX. CHANGE LAYER,ROW,COL MAX. CHANGE LAYER,ROW,COL MAX. CHANGE LAYER,ROW,COL MAX. CHANGE LAYER,ROW,COL MAX. CHANGE LAYER,ROW,COL
 ------------------------------------------------------------------------------------------------------------------------------------
   0.5694E-01 ( 20,  1, 87)  0.5229E-02 ( 19,  1, 87)  0.2378E-02 ( 18,  1, 87)  0.5086E-03 ( 18,  1, 87)  0.1358E-03 ( 16,  1, 89)
   0.3900E-04 ( 17,  1, 90)  0.6706E-05 ( 17,  1, 90)  0.5766E-06 ( 16,  1, 89)



 >>>>>>>>>>>>>>>>>>>>>>>>>>>>>>>>>>>>>>>>>>>>>>>>>>>>>>>FOR COMPONENT NO. 01<<<<<<<<<<<<<<<<<<<<<<<<<<<<<<<<<<<<<<<<<<<<<<<<<<<<<<<


                                            -------------------------------------------
                                                      TRANSPORT STEP NO.  290
                                            -------------------------------------------

 TOTAL ELAPSED TIME SINCE BEGINNING OF SIMULATION =   14500.00    D   
 .....................................................................

                     CUMMULATIVE MASS BUDGETS AT END OF TRANSPORT STEP  290, TIME STEP    1, STRESS PERIOD    1
                     ------------------------------------------------------------------------------------------

                                                             IN                           OUT
                                                      ----------------             ----------------
                               CONSTANT CONCENTRATION:    0.000000                    0.000000    
                                        CONSTANT HEAD:   0.5740660E+09              -0.5738754E+09
                                                WELLS:    0.000000                    0.000000    
                                             RECHARGE:    0.000000                    0.000000    
                               1ST/0TH ORDER REACTION:    0.000000                    0.000000    
                                MASS STORAGE (SOLUTE):   0.8034011E+08              -0.8053082E+08
                            ---------------------------------------------------------------------------
                                              [TOTAL]:   0.6544067E+09 KG           -0.6544068E+09 KG  

                                                          NET (IN - OUT):   -126.6280    
                                                   DISCREPANCY (PERCENT):  -0.1935005E-04



 >>>>>>>>>>>>>>>>>>>>>>>>>>>>>>>>>>>>>>>>>>>>>>>>>>>>>>>FOR COMPONENT NO. 02<<<<<<<<<<<<<<<<<<<<<<<<<<<<<<<<<<<<<<<<<<<<<<<<<<<<<<<


                                            -------------------------------------------
                                                      TRANSPORT STEP NO.  290
                                            -------------------------------------------

 TOTAL ELAPSED TIME SINCE BEGINNING OF SIMULATION =   14500.00    D   
 .....................................................................

                     CUMMULATIVE MASS BUDGETS AT END OF TRANSPORT STEP  290, TIME STEP    1, STRESS PERIOD    1
                     ------------------------------------------------------------------------------------------

                                                             IN                           OUT
                                                      ----------------             ----------------
                               CONSTANT CONCENTRATION:    0.000000                    0.000000    
                                        CONSTANT HEAD:    0.000000                  -0.5913727E+11
                                                WELLS:    0.000000                    0.000000    
                                             RECHARGE:    0.000000                    0.000000    
                               1ST/0TH ORDER REACTION:   0.2399750E+12                0.000000    
                                MASS STORAGE (SOLUTE):   0.1495324E+11              -0.1957910E+12
                            ---------------------------------------------------------------------------
                                              [TOTAL]:   0.2549285E+12 KG           -0.2549285E+12 KG  

                                                          NET (IN - OUT):   -10843.47    
                                                   DISCREPANCY (PERCENT):  -0.4253532E-05
 
 SOLVING FOR HEAD 


     2 CALLS TO PCG ROUTINE FOR TIME STEP   1 IN STRESS PERIOD    1
     9 TOTAL ITERATIONS

 MAXIMUM HEAD CHANGE FOR EACH ITERATION (1 INDICATES THE FIRST INNER ITERATION):

    HEAD CHANGE    HEAD CHANGE    HEAD CHANGE    HEAD CHANGE    HEAD CHANGE 
   LAYER,ROW,COL  LAYER,ROW,COL  LAYER,ROW,COL  LAYER,ROW,COL  LAYER,ROW,COL
 ---------------------------------------------------------------------------
  1  0.1350E-01  0 -0.3634E-02  0 -0.2308E-02  0 -0.8852E-02  0  0.8844E-02
   ( 15,  1, 86)  ( 17,  1, 89)  (  7,  1, 12)  ( 10,  1, 50)  ( 10,  1, 50)
  0  0.1389E-02  0 -0.1461E-02  0 -0.8631E-03  1  0.6784E-03
   ( 11,  1, 54)  ( 11,  1, 54)  ( 11,  1, 70)  ( 11,  1, 70)

 MAXIMUM RESIDUAL FOR EACH ITERATION (1 INDICATES THE FIRST INNER ITERATION):

    RESIDUAL       RESIDUAL       RESIDUAL       RESIDUAL       RESIDUAL    
   LAYER,ROW,COL  LAYER,ROW,COL  LAYER,ROW,COL  LAYER,ROW,COL  LAYER,ROW,COL
 ---------------------------------------------------------------------------
  1  0.1313E+06  0 -0.9210E+05  0 -0.9038E+05  0 -0.3895E+05  0  -5954.    
   ( 21,  1, 89)  ( 19,  1, 89)  ( 19,  1, 89)  ( 19,  1, 89)  ( 17,  1, 87)
  0   2892.      0   2346.      0   856.9      1   735.1    
   ( 22,  1, 87)  ( 22,  1, 87)  ( 22,  1, 87)  ( 22,  1, 87)


 FLOW MODEL IS TRANSIENT
 FLOW MODEL CONTAINS CONSTANT-HEAD CELLS


 MAXIMUM STEPSIZE DURING WHICH ANY PARTICLE CANNOT MOVE MORE THAN ONE CELL
 =  12.87    (WHEN MIN. R.F.=1)  AT K=  17, I=   1, J=  90

 MAXIMUM STEPSIZE WHICH MEETS STABILITY CRITERION OF THE ADVECTION TERM
 (FOR PURE FINITE-DIFFERENCE OPTION, MIXELM=0) 
 =  8.036    (WHEN MIN. R.F.=1)  AT K=  16, I=   1, J=  90


 TOTAL NUMBER OF POINT SOURCES/SINKS PRESENT IN THE FLOW MODEL =    30

 MAXIMUM STEPSIZE WHICH MEETS STABILITY CRITERION OF THE SINK & SOURCE TERM
 =  12.21    (WHEN MIN. R.F.=1)  AT K=  17, I=   1, J=  91

 MAXIMUM STEPSIZE WHICH MEETS STABILITY CRITERION OF THE DISPERSION TERM
 =  4.036    (WHEN MIN. R.F.=1)  AT K=  17, I=   1, J=  90
     1 CALLS TO GCG PACKAGE FOR TRANSPORT TIME STEP 291 IN FLOW TIME STEP   1 STRESS PERIOD   1
     8 TOTAL ITERATIONS
     1 CALLS TO GCG PACKAGE FOR TRANSPORT TIME STEP 291 IN FLOW TIME STEP   1 STRESS PERIOD   1
     8 TOTAL ITERATIONS
 
 SOLVING FOR HEAD 


     2 CALLS TO PCG ROUTINE FOR TIME STEP   1 IN STRESS PERIOD    1
     9 TOTAL ITERATIONS

 MAXIMUM HEAD CHANGE FOR EACH ITERATION (1 INDICATES THE FIRST INNER ITERATION):

    HEAD CHANGE    HEAD CHANGE    HEAD CHANGE    HEAD CHANGE    HEAD CHANGE 
   LAYER,ROW,COL  LAYER,ROW,COL  LAYER,ROW,COL  LAYER,ROW,COL  LAYER,ROW,COL
 ---------------------------------------------------------------------------
  1 -0.1349E-01  0  0.3638E-02  0  0.2336E-02  0  0.1086E-01  0 -0.1127E-01
   ( 15,  1, 86)  ( 17,  1, 89)  (  8,  1, 12)  ( 11,  1, 51)  ( 11,  1, 52)
  0 -0.1790E-02  0  0.1253E-02  0  0.5335E-03  1 -0.6278E-03
   ( 11,  1, 70)  ( 11,  1, 70)  ( 11,  1, 41)  ( 11,  1, 70)

 MAXIMUM RESIDUAL FOR EACH ITERATION (1 INDICATES THE FIRST INNER ITERATION):

    RESIDUAL       RESIDUAL       RESIDUAL       RESIDUAL       RESIDUAL    
   LAYER,ROW,COL  LAYER,ROW,COL  LAYER,ROW,COL  LAYER,ROW,COL  LAYER,ROW,COL
 ---------------------------------------------------------------------------
  1 -0.1314E+06  0  0.9220E+05  0  0.9054E+05  0  0.2898E+05  0   5431.    
   ( 21,  1, 89)  ( 19,  1, 89)  ( 19,  1, 89)  ( 19,  1, 89)  ( 17,  1, 87)
  0  -2871.      0  -2300.      0  -906.2      1  -787.3    
   ( 22,  1, 87)  ( 22,  1, 87)  ( 22,  1, 87)  ( 22,  1, 87)


 FLOW MODEL IS TRANSIENT
 FLOW MODEL CONTAINS CONSTANT-HEAD CELLS


 MAXIMUM STEPSIZE DURING WHICH ANY PARTICLE CANNOT MOVE MORE THAN ONE CELL
 =  13.20    (WHEN MIN. R.F.=1)  AT K=  17, I=   1, J=  90

 MAXIMUM STEPSIZE WHICH MEETS STABILITY CRITERION OF THE ADVECTION TERM
 (FOR PURE FINITE-DIFFERENCE OPTION, MIXELM=0) 
 =  8.001    (WHEN MIN. R.F.=1)  AT K=  16, I=   1, J=  90


 TOTAL NUMBER OF POINT SOURCES/SINKS PRESENT IN THE FLOW MODEL =    30

 MAXIMUM STEPSIZE WHICH MEETS STABILITY CRITERION OF THE SINK & SOURCE TERM
 =  12.17    (WHEN MIN. R.F.=1)  AT K=  17, I=   1, J=  91

 MAXIMUM STEPSIZE WHICH MEETS STABILITY CRITERION OF THE DISPERSION TERM
 =  4.352    (WHEN MIN. R.F.=1)  AT K=  17, I=   1, J=  90
     1 CALLS TO GCG PACKAGE FOR TRANSPORT TIME STEP 292 IN FLOW TIME STEP   1 STRESS PERIOD   1
     9 TOTAL ITERATIONS
     1 CALLS TO GCG PACKAGE FOR TRANSPORT TIME STEP 292 IN FLOW TIME STEP   1 STRESS PERIOD   1
     8 TOTAL ITERATIONS
 
 SOLVING FOR HEAD 


     2 CALLS TO PCG ROUTINE FOR TIME STEP   1 IN STRESS PERIOD    1
     9 TOTAL ITERATIONS

 MAXIMUM HEAD CHANGE FOR EACH ITERATION (1 INDICATES THE FIRST INNER ITERATION):

    HEAD CHANGE    HEAD CHANGE    HEAD CHANGE    HEAD CHANGE    HEAD CHANGE 
   LAYER,ROW,COL  LAYER,ROW,COL  LAYER,ROW,COL  LAYER,ROW,COL  LAYER,ROW,COL
 ---------------------------------------------------------------------------
  1  0.1349E-01  0 -0.3627E-02  0 -0.2307E-02  0 -0.8804E-02  0  0.8836E-02
   ( 15,  1, 86)  ( 17,  1, 89)  (  7,  1, 12)  (  9,  1, 50)  ( 10,  1, 50)
  0  0.1469E-02  0 -0.1462E-02  0 -0.8868E-03  1  0.6501E-03
   ( 11,  1, 54)  ( 11,  1, 54)  ( 11,  1, 70)  ( 11,  1, 70)

 MAXIMUM RESIDUAL FOR EACH ITERATION (1 INDICATES THE FIRST INNER ITERATION):

    RESIDUAL       RESIDUAL       RESIDUAL       RESIDUAL       RESIDUAL    
   LAYER,ROW,COL  LAYER,ROW,COL  LAYER,ROW,COL  LAYER,ROW,COL  LAYER,ROW,COL
 ---------------------------------------------------------------------------
  1  0.1311E+06  0 -0.9198E+05  0 -0.9015E+05  0 -0.3912E+05  0  -5952.    
   ( 21,  1, 89)  ( 19,  1, 89)  ( 19,  1, 89)  ( 19,  1, 89)  ( 17,  1, 87)
  0   2892.      0   2372.      0   861.7      1   741.7    
   ( 22,  1, 87)  ( 22,  1, 87)  ( 22,  1, 87)  ( 22,  1, 87)


 FLOW MODEL IS TRANSIENT
 FLOW MODEL CONTAINS CONSTANT-HEAD CELLS


 MAXIMUM STEPSIZE DURING WHICH ANY PARTICLE CANNOT MOVE MORE THAN ONE CELL
 =  12.87    (WHEN MIN. R.F.=1)  AT K=  17, I=   1, J=  90

 MAXIMUM STEPSIZE WHICH MEETS STABILITY CRITERION OF THE ADVECTION TERM
 (FOR PURE FINITE-DIFFERENCE OPTION, MIXELM=0) 
 =  8.036    (WHEN MIN. R.F.=1)  AT K=  16, I=   1, J=  90


 TOTAL NUMBER OF POINT SOURCES/SINKS PRESENT IN THE FLOW MODEL =    30

 MAXIMUM STEPSIZE WHICH MEETS STABILITY CRITERION OF THE SINK & SOURCE TERM
 =  12.21    (WHEN MIN. R.F.=1)  AT K=  17, I=   1, J=  91

 MAXIMUM STEPSIZE WHICH MEETS STABILITY CRITERION OF THE DISPERSION TERM
 =  4.035    (WHEN MIN. R.F.=1)  AT K=  17, I=   1, J=  90
     1 CALLS TO GCG PACKAGE FOR TRANSPORT TIME STEP 293 IN FLOW TIME STEP   1 STRESS PERIOD   1
     8 TOTAL ITERATIONS
     1 CALLS TO GCG PACKAGE FOR TRANSPORT TIME STEP 293 IN FLOW TIME STEP   1 STRESS PERIOD   1
     8 TOTAL ITERATIONS
 
 SOLVING FOR HEAD 


     2 CALLS TO PCG ROUTINE FOR TIME STEP   1 IN STRESS PERIOD    1
     9 TOTAL ITERATIONS

 MAXIMUM HEAD CHANGE FOR EACH ITERATION (1 INDICATES THE FIRST INNER ITERATION):

    HEAD CHANGE    HEAD CHANGE    HEAD CHANGE    HEAD CHANGE    HEAD CHANGE 
   LAYER,ROW,COL  LAYER,ROW,COL  LAYER,ROW,COL  LAYER,ROW,COL  LAYER,ROW,COL
 ---------------------------------------------------------------------------
  1 -0.1349E-01  0  0.3630E-02  0  0.2337E-02  0  0.1100E-01  0 -0.1142E-01
   ( 15,  1, 86)  ( 17,  1, 89)  (  8,  1, 12)  ( 11,  1, 51)  ( 11,  1, 52)
  0 -0.1812E-02  0  0.1316E-02  0  0.5275E-03  1 -0.6479E-03
   ( 11,  1, 70)  ( 11,  1, 70)  ( 11,  1, 41)  ( 11,  1, 70)

 MAXIMUM RESIDUAL FOR EACH ITERATION (1 INDICATES THE FIRST INNER ITERATION):

    RESIDUAL       RESIDUAL       RESIDUAL       RESIDUAL       RESIDUAL    
   LAYER,ROW,COL  LAYER,ROW,COL  LAYER,ROW,COL  LAYER,ROW,COL  LAYER,ROW,COL
 ---------------------------------------------------------------------------
  1 -0.1312E+06  0  0.9200E+05  0  0.9039E+05  0  0.2879E+05  0   5428.    
   ( 21,  1, 89)  ( 19,  1, 89)  ( 19,  1, 89)  ( 19,  1, 89)  ( 17,  1, 87)
  0  -2874.      0  -2275.      0  -899.1      1  -779.5    
   ( 22,  1, 87)  ( 22,  1, 87)  ( 22,  1, 87)  ( 22,  1, 87)


 FLOW MODEL IS TRANSIENT
 FLOW MODEL CONTAINS CONSTANT-HEAD CELLS


 MAXIMUM STEPSIZE DURING WHICH ANY PARTICLE CANNOT MOVE MORE THAN ONE CELL
 =  13.20    (WHEN MIN. R.F.=1)  AT K=  17, I=   1, J=  90

 MAXIMUM STEPSIZE WHICH MEETS STABILITY CRITERION OF THE ADVECTION TERM
 (FOR PURE FINITE-DIFFERENCE OPTION, MIXELM=0) 
 =  8.001    (WHEN MIN. R.F.=1)  AT K=  16, I=   1, J=  90


 TOTAL NUMBER OF POINT SOURCES/SINKS PRESENT IN THE FLOW MODEL =    30

 MAXIMUM STEPSIZE WHICH MEETS STABILITY CRITERION OF THE SINK & SOURCE TERM
 =  12.17    (WHEN MIN. R.F.=1)  AT K=  17, I=   1, J=  91

 MAXIMUM STEPSIZE WHICH MEETS STABILITY CRITERION OF THE DISPERSION TERM
 =  4.350    (WHEN MIN. R.F.=1)  AT K=  17, I=   1, J=  90
     1 CALLS TO GCG PACKAGE FOR TRANSPORT TIME STEP 294 IN FLOW TIME STEP   1 STRESS PERIOD   1
     9 TOTAL ITERATIONS
     1 CALLS TO GCG PACKAGE FOR TRANSPORT TIME STEP 294 IN FLOW TIME STEP   1 STRESS PERIOD   1
     8 TOTAL ITERATIONS
 
 SOLVING FOR HEAD 


     2 CALLS TO PCG ROUTINE FOR TIME STEP   1 IN STRESS PERIOD    1
     9 TOTAL ITERATIONS

 MAXIMUM HEAD CHANGE FOR EACH ITERATION (1 INDICATES THE FIRST INNER ITERATION):

    HEAD CHANGE    HEAD CHANGE    HEAD CHANGE    HEAD CHANGE    HEAD CHANGE 
   LAYER,ROW,COL  LAYER,ROW,COL  LAYER,ROW,COL  LAYER,ROW,COL  LAYER,ROW,COL
 ---------------------------------------------------------------------------
  1  0.1349E-01  0 -0.3624E-02  0 -0.2313E-02  0 -0.8755E-02  0  0.8825E-02
   ( 15,  1, 86)  ( 17,  1, 89)  (  7,  1, 12)  (  9,  1, 50)  ( 10,  1, 50)
  0  0.1492E-02  0 -0.1464E-02  0 -0.8949E-03  1  0.6411E-03
   ( 11,  1, 54)  ( 11,  1, 54)  ( 11,  1, 70)  ( 11,  1, 70)

 MAXIMUM RESIDUAL FOR EACH ITERATION (1 INDICATES THE FIRST INNER ITERATION):

    RESIDUAL       RESIDUAL       RESIDUAL       RESIDUAL       RESIDUAL    
   LAYER,ROW,COL  LAYER,ROW,COL  LAYER,ROW,COL  LAYER,ROW,COL  LAYER,ROW,COL
 ---------------------------------------------------------------------------
  1  0.1310E+06  0 -0.9189E+05  0 -0.8993E+05  0 -0.3937E+05  0  -5950.    
   ( 21,  1, 89)  ( 19,  1, 89)  ( 19,  1, 89)  ( 19,  1, 89)  ( 17,  1, 87)
  0   2893.      0   2375.      0   862.6      1   743.3    
   ( 22,  1, 87)  ( 22,  1, 87)  ( 22,  1, 87)  ( 22,  1, 87)


 FLOW MODEL IS TRANSIENT
 FLOW MODEL CONTAINS CONSTANT-HEAD CELLS


 MAXIMUM STEPSIZE DURING WHICH ANY PARTICLE CANNOT MOVE MORE THAN ONE CELL
 =  12.87    (WHEN MIN. R.F.=1)  AT K=  17, I=   1, J=  90

 MAXIMUM STEPSIZE WHICH MEETS STABILITY CRITERION OF THE ADVECTION TERM
 (FOR PURE FINITE-DIFFERENCE OPTION, MIXELM=0) 
 =  8.036    (WHEN MIN. R.F.=1)  AT K=  16, I=   1, J=  90


 TOTAL NUMBER OF POINT SOURCES/SINKS PRESENT IN THE FLOW MODEL =    30

 MAXIMUM STEPSIZE WHICH MEETS STABILITY CRITERION OF THE SINK & SOURCE TERM
 =  12.21    (WHEN MIN. R.F.=1)  AT K=  17, I=   1, J=  91

 MAXIMUM STEPSIZE WHICH MEETS STABILITY CRITERION OF THE DISPERSION TERM
 =  4.035    (WHEN MIN. R.F.=1)  AT K=  17, I=   1, J=  90
     1 CALLS TO GCG PACKAGE FOR TRANSPORT TIME STEP 295 IN FLOW TIME STEP   1 STRESS PERIOD   1
     8 TOTAL ITERATIONS
  MAXIMUM CONCENTRATION CHANGES FOR EACH ITERATION:
  MAX. CHANGE LAYER,ROW,COL MAX. CHANGE LAYER,ROW,COL MAX. CHANGE LAYER,ROW,COL MAX. CHANGE LAYER,ROW,COL MAX. CHANGE LAYER,ROW,COL
 ------------------------------------------------------------------------------------------------------------------------------------
   0.5264E-01 ( 20,  1, 87)  0.4147E-02 ( 19,  1, 89)  0.2162E-02 ( 18,  1, 86)  0.4612E-03 ( 20,  1, 89)  0.9588E-04 ( 16,  1, 89)
   0.2000E-04 ( 20,  1, 89)  0.1674E-04 ( 16,  1, 90)  0.7556E-06 ( 17,  1, 90)
     1 CALLS TO GCG PACKAGE FOR TRANSPORT TIME STEP 295 IN FLOW TIME STEP   1 STRESS PERIOD   1
     8 TOTAL ITERATIONS
  MAXIMUM CONCENTRATION CHANGES FOR EACH ITERATION:
  MAX. CHANGE LAYER,ROW,COL MAX. CHANGE LAYER,ROW,COL MAX. CHANGE LAYER,ROW,COL MAX. CHANGE LAYER,ROW,COL MAX. CHANGE LAYER,ROW,COL
 ------------------------------------------------------------------------------------------------------------------------------------
   0.6201E-01 ( 20,  1, 87)  0.4417E-02 ( 19,  1, 89)  0.2073E-02 ( 18,  1, 86)  0.7016E-03 ( 19,  1, 89)  0.1239E-03 ( 16,  1, 89)
   0.3510E-04 ( 23,  1, 87)  0.1313E-04 ( 17,  1, 90)  0.9968E-06 ( 17,  1, 90)
 
 SOLVING FOR HEAD 


     2 CALLS TO PCG ROUTINE FOR TIME STEP   1 IN STRESS PERIOD    1
     9 TOTAL ITERATIONS

 MAXIMUM HEAD CHANGE FOR EACH ITERATION (1 INDICATES THE FIRST INNER ITERATION):

    HEAD CHANGE    HEAD CHANGE    HEAD CHANGE    HEAD CHANGE    HEAD CHANGE 
   LAYER,ROW,COL  LAYER,ROW,COL  LAYER,ROW,COL  LAYER,ROW,COL  LAYER,ROW,COL
 ---------------------------------------------------------------------------
  1 -0.1349E-01  0  0.3623E-02  0  0.2340E-02  0  0.1115E-01  0 -0.1156E-01
   ( 15,  1, 86)  ( 17,  1, 89)  (  8,  1, 12)  ( 11,  1, 51)  ( 11,  1, 52)
  0 -0.1798E-02  0  0.1366E-02  0  0.5233E-03  1 -0.6487E-03
   ( 11,  1, 70)  ( 11,  1, 70)  ( 11,  1, 42)  ( 11,  1, 70)

 MAXIMUM RESIDUAL FOR EACH ITERATION (1 INDICATES THE FIRST INNER ITERATION):

    RESIDUAL       RESIDUAL       RESIDUAL       RESIDUAL       RESIDUAL    
   LAYER,ROW,COL  LAYER,ROW,COL  LAYER,ROW,COL  LAYER,ROW,COL  LAYER,ROW,COL
 ---------------------------------------------------------------------------
  1 -0.1311E+06  0  0.9188E+05  0  0.9031E+05  0  0.2867E+05  0   5424.    
   ( 21,  1, 89)  ( 19,  1, 89)  ( 19,  1, 89)  ( 19,  1, 89)  ( 17,  1, 87)
  0  -2875.      0  -2249.      0  -890.5      1  -771.4    
   ( 22,  1, 87)  ( 22,  1, 87)  ( 22,  1, 87)  ( 22,  1, 87)


 FLOW MODEL IS TRANSIENT
 FLOW MODEL CONTAINS CONSTANT-HEAD CELLS


 MAXIMUM STEPSIZE DURING WHICH ANY PARTICLE CANNOT MOVE MORE THAN ONE CELL
 =  13.20    (WHEN MIN. R.F.=1)  AT K=  17, I=   1, J=  90

 MAXIMUM STEPSIZE WHICH MEETS STABILITY CRITERION OF THE ADVECTION TERM
 (FOR PURE FINITE-DIFFERENCE OPTION, MIXELM=0) 
 =  8.001    (WHEN MIN. R.F.=1)  AT K=  16, I=   1, J=  90


 TOTAL NUMBER OF POINT SOURCES/SINKS PRESENT IN THE FLOW MODEL =    30

 MAXIMUM STEPSIZE WHICH MEETS STABILITY CRITERION OF THE SINK & SOURCE TERM
 =  12.17    (WHEN MIN. R.F.=1)  AT K=  17, I=   1, J=  91

 MAXIMUM STEPSIZE WHICH MEETS STABILITY CRITERION OF THE DISPERSION TERM
 =  4.350    (WHEN MIN. R.F.=1)  AT K=  17, I=   1, J=  90
     1 CALLS TO GCG PACKAGE FOR TRANSPORT TIME STEP 296 IN FLOW TIME STEP   1 STRESS PERIOD   1
     9 TOTAL ITERATIONS
     1 CALLS TO GCG PACKAGE FOR TRANSPORT TIME STEP 296 IN FLOW TIME STEP   1 STRESS PERIOD   1
     8 TOTAL ITERATIONS
 
 SOLVING FOR HEAD 


     2 CALLS TO PCG ROUTINE FOR TIME STEP   1 IN STRESS PERIOD    1
     9 TOTAL ITERATIONS

 MAXIMUM HEAD CHANGE FOR EACH ITERATION (1 INDICATES THE FIRST INNER ITERATION):

    HEAD CHANGE    HEAD CHANGE    HEAD CHANGE    HEAD CHANGE    HEAD CHANGE 
   LAYER,ROW,COL  LAYER,ROW,COL  LAYER,ROW,COL  LAYER,ROW,COL  LAYER,ROW,COL
 ---------------------------------------------------------------------------
  1  0.1349E-01  0 -0.3620E-02  0 -0.2324E-02  0 -0.8694E-02  0  0.8807E-02
   ( 15,  1, 86)  ( 17,  1, 89)  (  7,  1, 12)  (  9,  1, 50)  ( 10,  1, 50)
  0  0.1462E-02  0 -0.1460E-02  0 -0.8888E-03  1  0.6420E-03
   ( 11,  1, 54)  ( 11,  1, 54)  ( 11,  1, 70)  ( 11,  1, 70)

 MAXIMUM RESIDUAL FOR EACH ITERATION (1 INDICATES THE FIRST INNER ITERATION):

    RESIDUAL       RESIDUAL       RESIDUAL       RESIDUAL       RESIDUAL    
   LAYER,ROW,COL  LAYER,ROW,COL  LAYER,ROW,COL  LAYER,ROW,COL  LAYER,ROW,COL
 ---------------------------------------------------------------------------
  1  0.1309E+06  0 -0.9180E+05  0 -0.8973E+05  0 -0.3946E+05  0  -5950.    
   ( 21,  1, 89)  ( 19,  1, 89)  ( 19,  1, 89)  ( 19,  1, 89)  ( 17,  1, 87)
  0   2893.      0   2360.      0   858.9      1   740.1    
   ( 22,  1, 87)  ( 22,  1, 87)  ( 22,  1, 87)  ( 22,  1, 87)


 FLOW MODEL IS TRANSIENT
 FLOW MODEL CONTAINS CONSTANT-HEAD CELLS


 MAXIMUM STEPSIZE DURING WHICH ANY PARTICLE CANNOT MOVE MORE THAN ONE CELL
 =  12.87    (WHEN MIN. R.F.=1)  AT K=  17, I=   1, J=  90

 MAXIMUM STEPSIZE WHICH MEETS STABILITY CRITERION OF THE ADVECTION TERM
 (FOR PURE FINITE-DIFFERENCE OPTION, MIXELM=0) 
 =  8.036    (WHEN MIN. R.F.=1)  AT K=  16, I=   1, J=  90


 TOTAL NUMBER OF POINT SOURCES/SINKS PRESENT IN THE FLOW MODEL =    30

 MAXIMUM STEPSIZE WHICH MEETS STABILITY CRITERION OF THE SINK & SOURCE TERM
 =  12.21    (WHEN MIN. R.F.=1)  AT K=  17, I=   1, J=  91

 MAXIMUM STEPSIZE WHICH MEETS STABILITY CRITERION OF THE DISPERSION TERM
 =  4.035    (WHEN MIN. R.F.=1)  AT K=  17, I=   1, J=  90
     1 CALLS TO GCG PACKAGE FOR TRANSPORT TIME STEP 297 IN FLOW TIME STEP   1 STRESS PERIOD   1
     8 TOTAL ITERATIONS
     1 CALLS TO GCG PACKAGE FOR TRANSPORT TIME STEP 297 IN FLOW TIME STEP   1 STRESS PERIOD   1
     8 TOTAL ITERATIONS
 
 SOLVING FOR HEAD 


     2 CALLS TO PCG ROUTINE FOR TIME STEP   1 IN STRESS PERIOD    1
     9 TOTAL ITERATIONS

 MAXIMUM HEAD CHANGE FOR EACH ITERATION (1 INDICATES THE FIRST INNER ITERATION):

    HEAD CHANGE    HEAD CHANGE    HEAD CHANGE    HEAD CHANGE    HEAD CHANGE 
   LAYER,ROW,COL  LAYER,ROW,COL  LAYER,ROW,COL  LAYER,ROW,COL  LAYER,ROW,COL
 ---------------------------------------------------------------------------
  1 -0.1349E-01  0  0.3617E-02  0  0.2341E-02  0  0.1130E-01  0 -0.1171E-01
   ( 15,  1, 86)  ( 17,  1, 89)  (  8,  1, 12)  ( 11,  1, 51)  ( 11,  1, 52)
  0 -0.1771E-02  0  0.1404E-02  0  0.5141E-03  1 -0.6449E-03
   ( 11,  1, 70)  ( 11,  1, 70)  ( 11,  1, 43)  ( 11,  1, 70)

 MAXIMUM RESIDUAL FOR EACH ITERATION (1 INDICATES THE FIRST INNER ITERATION):

    RESIDUAL       RESIDUAL       RESIDUAL       RESIDUAL       RESIDUAL    
   LAYER,ROW,COL  LAYER,ROW,COL  LAYER,ROW,COL  LAYER,ROW,COL  LAYER,ROW,COL
 ---------------------------------------------------------------------------
  1 -0.1310E+06  0  0.9180E+05  0  0.9024E+05  0  0.2864E+05  0   5422.    
   ( 21,  1, 89)  ( 19,  1, 89)  ( 19,  1, 89)  ( 19,  1, 89)  ( 17,  1, 87)
  0  -2876.      0  -2221.      0  -881.8      1  -763.1    
   ( 22,  1, 87)  ( 22,  1, 87)  ( 22,  1, 87)  ( 22,  1, 87)


 FLOW MODEL IS TRANSIENT
 FLOW MODEL CONTAINS CONSTANT-HEAD CELLS


 MAXIMUM STEPSIZE DURING WHICH ANY PARTICLE CANNOT MOVE MORE THAN ONE CELL
 =  13.20    (WHEN MIN. R.F.=1)  AT K=  17, I=   1, J=  90

 MAXIMUM STEPSIZE WHICH MEETS STABILITY CRITERION OF THE ADVECTION TERM
 (FOR PURE FINITE-DIFFERENCE OPTION, MIXELM=0) 
 =  8.001    (WHEN MIN. R.F.=1)  AT K=  16, I=   1, J=  90


 TOTAL NUMBER OF POINT SOURCES/SINKS PRESENT IN THE FLOW MODEL =    30

 MAXIMUM STEPSIZE WHICH MEETS STABILITY CRITERION OF THE SINK & SOURCE TERM
 =  12.17    (WHEN MIN. R.F.=1)  AT K=  17, I=   1, J=  91

 MAXIMUM STEPSIZE WHICH MEETS STABILITY CRITERION OF THE DISPERSION TERM
 =  4.349    (WHEN MIN. R.F.=1)  AT K=  17, I=   1, J=  90
     1 CALLS TO GCG PACKAGE FOR TRANSPORT TIME STEP 298 IN FLOW TIME STEP   1 STRESS PERIOD   1
     9 TOTAL ITERATIONS
     1 CALLS TO GCG PACKAGE FOR TRANSPORT TIME STEP 298 IN FLOW TIME STEP   1 STRESS PERIOD   1
     8 TOTAL ITERATIONS
 
 SOLVING FOR HEAD 


     2 CALLS TO PCG ROUTINE FOR TIME STEP   1 IN STRESS PERIOD    1
     9 TOTAL ITERATIONS

 MAXIMUM HEAD CHANGE FOR EACH ITERATION (1 INDICATES THE FIRST INNER ITERATION):

    HEAD CHANGE    HEAD CHANGE    HEAD CHANGE    HEAD CHANGE    HEAD CHANGE 
   LAYER,ROW,COL  LAYER,ROW,COL  LAYER,ROW,COL  LAYER,ROW,COL  LAYER,ROW,COL
 ---------------------------------------------------------------------------
  1  0.1349E-01  0 -0.3615E-02  0 -0.2334E-02  0 -0.8639E-02  0  0.8786E-02
   ( 15,  1, 86)  ( 17,  1, 89)  (  7,  1, 12)  (  9,  1, 50)  ( 10,  1, 50)
  0  0.1409E-02  0 -0.1442E-02  0 -0.8692E-03  1  0.6428E-03
   ( 11,  1, 54)  ( 11,  1, 54)  ( 11,  1, 70)  ( 11,  1, 70)

 MAXIMUM RESIDUAL FOR EACH ITERATION (1 INDICATES THE FIRST INNER ITERATION):

    RESIDUAL       RESIDUAL       RESIDUAL       RESIDUAL       RESIDUAL    
   LAYER,ROW,COL  LAYER,ROW,COL  LAYER,ROW,COL  LAYER,ROW,COL  LAYER,ROW,COL
 ---------------------------------------------------------------------------
  1  0.1309E+06  0 -0.9173E+05  0 -0.8956E+05  0 -0.3957E+05  0  -5949.    
   ( 21,  1, 89)  ( 19,  1, 89)  ( 19,  1, 89)  ( 19,  1, 89)  ( 17,  1, 87)
  0   2893.      0   2340.      0   853.2      1   735.2    
   ( 22,  1, 87)  ( 22,  1, 87)  ( 22,  1, 87)  ( 22,  1, 87)


 FLOW MODEL IS TRANSIENT
 FLOW MODEL CONTAINS CONSTANT-HEAD CELLS


 MAXIMUM STEPSIZE DURING WHICH ANY PARTICLE CANNOT MOVE MORE THAN ONE CELL
 =  12.87    (WHEN MIN. R.F.=1)  AT K=  17, I=   1, J=  90

 MAXIMUM STEPSIZE WHICH MEETS STABILITY CRITERION OF THE ADVECTION TERM
 (FOR PURE FINITE-DIFFERENCE OPTION, MIXELM=0) 
 =  8.036    (WHEN MIN. R.F.=1)  AT K=  16, I=   1, J=  90


 TOTAL NUMBER OF POINT SOURCES/SINKS PRESENT IN THE FLOW MODEL =    30

 MAXIMUM STEPSIZE WHICH MEETS STABILITY CRITERION OF THE SINK & SOURCE TERM
 =  12.21    (WHEN MIN. R.F.=1)  AT K=  17, I=   1, J=  91

 MAXIMUM STEPSIZE WHICH MEETS STABILITY CRITERION OF THE DISPERSION TERM
 =  4.035    (WHEN MIN. R.F.=1)  AT K=  17, I=   1, J=  90
     1 CALLS TO GCG PACKAGE FOR TRANSPORT TIME STEP 299 IN FLOW TIME STEP   1 STRESS PERIOD   1
     8 TOTAL ITERATIONS
     1 CALLS TO GCG PACKAGE FOR TRANSPORT TIME STEP 299 IN FLOW TIME STEP   1 STRESS PERIOD   1
     8 TOTAL ITERATIONS
 
 SOLVING FOR HEAD 


     2 CALLS TO PCG ROUTINE FOR TIME STEP   1 IN STRESS PERIOD    1
     9 TOTAL ITERATIONS

 MAXIMUM HEAD CHANGE FOR EACH ITERATION (1 INDICATES THE FIRST INNER ITERATION):

    HEAD CHANGE    HEAD CHANGE    HEAD CHANGE    HEAD CHANGE    HEAD CHANGE 
   LAYER,ROW,COL  LAYER,ROW,COL  LAYER,ROW,COL  LAYER,ROW,COL  LAYER,ROW,COL
 ---------------------------------------------------------------------------
  1 -0.1349E-01  0  0.3611E-02  0  0.2339E-02  0  0.1147E-01  0 -0.1189E-01
   ( 15,  1, 86)  ( 17,  1, 89)  (  8,  1, 12)  ( 11,  1, 51)  ( 11,  1, 52)
  0 -0.1740E-02  0  0.1428E-02  0  0.5060E-03  1 -0.6375E-03
   ( 11,  1, 70)  ( 11,  1, 70)  ( 11,  1, 43)  ( 11,  1, 70)

 MAXIMUM RESIDUAL FOR EACH ITERATION (1 INDICATES THE FIRST INNER ITERATION):

    RESIDUAL       RESIDUAL       RESIDUAL       RESIDUAL       RESIDUAL    
   LAYER,ROW,COL  LAYER,ROW,COL  LAYER,ROW,COL  LAYER,ROW,COL  LAYER,ROW,COL
 ---------------------------------------------------------------------------
  1 -0.1309E+06  0  0.9173E+05  0  0.9017E+05  0  0.2858E+05  0   5420.    
   ( 21,  1, 89)  ( 19,  1, 89)  ( 19,  1, 89)  ( 19,  1, 89)  ( 17,  1, 87)
  0  -2877.      0  -2194.      0  -874.1      1  -755.6    
   ( 22,  1, 87)  ( 22,  1, 87)  ( 22,  1, 87)  ( 22,  1, 87)


 FLOW MODEL IS TRANSIENT
 FLOW MODEL CONTAINS CONSTANT-HEAD CELLS


 MAXIMUM STEPSIZE DURING WHICH ANY PARTICLE CANNOT MOVE MORE THAN ONE CELL
 =  13.20    (WHEN MIN. R.F.=1)  AT K=  17, I=   1, J=  90

 MAXIMUM STEPSIZE WHICH MEETS STABILITY CRITERION OF THE ADVECTION TERM
 (FOR PURE FINITE-DIFFERENCE OPTION, MIXELM=0) 
 =  8.001    (WHEN MIN. R.F.=1)  AT K=  16, I=   1, J=  90


 TOTAL NUMBER OF POINT SOURCES/SINKS PRESENT IN THE FLOW MODEL =    30

 MAXIMUM STEPSIZE WHICH MEETS STABILITY CRITERION OF THE SINK & SOURCE TERM
 =  12.17    (WHEN MIN. R.F.=1)  AT K=  17, I=   1, J=  91

 MAXIMUM STEPSIZE WHICH MEETS STABILITY CRITERION OF THE DISPERSION TERM
 =  4.349    (WHEN MIN. R.F.=1)  AT K=  17, I=   1, J=  90
     1 CALLS TO GCG PACKAGE FOR TRANSPORT TIME STEP 300 IN FLOW TIME STEP   1 STRESS PERIOD   1
     9 TOTAL ITERATIONS
  MAXIMUM CONCENTRATION CHANGES FOR EACH ITERATION:
  MAX. CHANGE LAYER,ROW,COL MAX. CHANGE LAYER,ROW,COL MAX. CHANGE LAYER,ROW,COL MAX. CHANGE LAYER,ROW,COL MAX. CHANGE LAYER,ROW,COL
 ------------------------------------------------------------------------------------------------------------------------------------
   0.4937E-01 ( 20,  1, 87)  0.3301E-02 ( 19,  1, 87)  0.2214E-02 ( 18,  1, 87)  0.2154E-03 ( 16,  1, 88)  0.1405E-03 ( 16,  1, 89)
   0.2966E-04 ( 16,  1, 90)  0.1886E-05 ( 21,  1, 78)  0.2862E-05 ( 21,  1, 78)  0.7338E-06 ( 16,  1, 89)
     1 CALLS TO GCG PACKAGE FOR TRANSPORT TIME STEP 300 IN FLOW TIME STEP   1 STRESS PERIOD   1
     8 TOTAL ITERATIONS
  MAXIMUM CONCENTRATION CHANGES FOR EACH ITERATION:
  MAX. CHANGE LAYER,ROW,COL MAX. CHANGE LAYER,ROW,COL MAX. CHANGE LAYER,ROW,COL MAX. CHANGE LAYER,ROW,COL MAX. CHANGE LAYER,ROW,COL
 ------------------------------------------------------------------------------------------------------------------------------------
   0.5686E-01 ( 20,  1, 87)  0.5103E-02 ( 19,  1, 87)  0.2358E-02 ( 18,  1, 87)  0.4826E-03 ( 18,  1, 87)  0.1358E-03 ( 16,  1, 89)
   0.3866E-04 ( 17,  1, 90)  0.6622E-05 ( 17,  1, 90)  0.5741E-06 ( 16,  1, 89)



 >>>>>>>>>>>>>>>>>>>>>>>>>>>>>>>>>>>>>>>>>>>>>>>>>>>>>>>FOR COMPONENT NO. 01<<<<<<<<<<<<<<<<<<<<<<<<<<<<<<<<<<<<<<<<<<<<<<<<<<<<<<<


                                            -------------------------------------------
                                                      TRANSPORT STEP NO.  300
                                            -------------------------------------------

 TOTAL ELAPSED TIME SINCE BEGINNING OF SIMULATION =   15000.00    D   
 .....................................................................

                     CUMMULATIVE MASS BUDGETS AT END OF TRANSPORT STEP  300, TIME STEP    1, STRESS PERIOD    1
                     ------------------------------------------------------------------------------------------

                                                             IN                           OUT
                                                      ----------------             ----------------
                               CONSTANT CONCENTRATION:    0.000000                    0.000000    
                                        CONSTANT HEAD:   0.5938426E+09              -0.5936493E+09
                                                WELLS:    0.000000                    0.000000    
                                             RECHARGE:    0.000000                    0.000000    
                               1ST/0TH ORDER REACTION:    0.000000                    0.000000    
                                MASS STORAGE (SOLUTE):   0.8308819E+08              -0.8328165E+08
                            ---------------------------------------------------------------------------
                                              [TOTAL]:   0.6769314E+09 KG           -0.6769315E+09 KG  

                                                          NET (IN - OUT):   -118.9198    
                                                   DISCREPANCY (PERCENT):  -0.1756748E-04



 >>>>>>>>>>>>>>>>>>>>>>>>>>>>>>>>>>>>>>>>>>>>>>>>>>>>>>>FOR COMPONENT NO. 02<<<<<<<<<<<<<<<<<<<<<<<<<<<<<<<<<<<<<<<<<<<<<<<<<<<<<<<


                                            -------------------------------------------
                                                      TRANSPORT STEP NO.  300
                                            -------------------------------------------

 TOTAL ELAPSED TIME SINCE BEGINNING OF SIMULATION =   15000.00    D   
 .....................................................................

                     CUMMULATIVE MASS BUDGETS AT END OF TRANSPORT STEP  300, TIME STEP    1, STRESS PERIOD    1
                     ------------------------------------------------------------------------------------------

                                                             IN                           OUT
                                                      ----------------             ----------------
                               CONSTANT CONCENTRATION:    0.000000                    0.000000    
                                        CONSTANT HEAD:    0.000000                  -0.6269193E+11
                                                WELLS:    0.000000                    0.000000    
                                             RECHARGE:    0.000000                    0.000000    
                               1ST/0TH ORDER REACTION:   0.2482500E+12                0.000000    
                                MASS STORAGE (SOLUTE):   0.1608068E+11              -0.2016388E+12
                            ---------------------------------------------------------------------------
                                              [TOTAL]:   0.2643310E+12 KG           -0.2643310E+12 KG  

                                                          NET (IN - OUT):   -12443.15    
                                                   DISCREPANCY (PERCENT):  -0.4707412E-05
 
 SOLVING FOR HEAD 


     2 CALLS TO PCG ROUTINE FOR TIME STEP   1 IN STRESS PERIOD    1
     9 TOTAL ITERATIONS

 MAXIMUM HEAD CHANGE FOR EACH ITERATION (1 INDICATES THE FIRST INNER ITERATION):

    HEAD CHANGE    HEAD CHANGE    HEAD CHANGE    HEAD CHANGE    HEAD CHANGE 
   LAYER,ROW,COL  LAYER,ROW,COL  LAYER,ROW,COL  LAYER,ROW,COL  LAYER,ROW,COL
 ---------------------------------------------------------------------------
  1  0.1349E-01  0 -0.3610E-02  0 -0.2343E-02  0 -0.8588E-02  0  0.8763E-02
   ( 15,  1, 86)  ( 17,  1, 89)  (  7,  1, 12)  (  9,  1, 50)  ( 10,  1, 50)
  0  0.1337E-02  0 -0.1400E-02  0 -0.8329E-03  1  0.6421E-03
   ( 11,  1, 54)  ( 11,  1, 54)  ( 11,  1, 70)  ( 11,  1, 70)

 MAXIMUM RESIDUAL FOR EACH ITERATION (1 INDICATES THE FIRST INNER ITERATION):

    RESIDUAL       RESIDUAL       RESIDUAL       RESIDUAL       RESIDUAL    
   LAYER,ROW,COL  LAYER,ROW,COL  LAYER,ROW,COL  LAYER,ROW,COL  LAYER,ROW,COL
 ---------------------------------------------------------------------------
  1  0.1308E+06  0 -0.9166E+05  0 -0.8942E+05  0 -0.3970E+05  0  -5947.    
   ( 21,  1, 89)  ( 19,  1, 89)  ( 19,  1, 89)  ( 19,  1, 89)  ( 17,  1, 87)
  0   2894.      0   2320.      0   847.4      1   730.3    
   ( 22,  1, 87)  ( 22,  1, 87)  ( 22,  1, 87)  ( 22,  1, 87)


 FLOW MODEL IS TRANSIENT
 FLOW MODEL CONTAINS CONSTANT-HEAD CELLS


 MAXIMUM STEPSIZE DURING WHICH ANY PARTICLE CANNOT MOVE MORE THAN ONE CELL
 =  12.87    (WHEN MIN. R.F.=1)  AT K=  17, I=   1, J=  90

 MAXIMUM STEPSIZE WHICH MEETS STABILITY CRITERION OF THE ADVECTION TERM
 (FOR PURE FINITE-DIFFERENCE OPTION, MIXELM=0) 
 =  8.036    (WHEN MIN. R.F.=1)  AT K=  16, I=   1, J=  90


 TOTAL NUMBER OF POINT SOURCES/SINKS PRESENT IN THE FLOW MODEL =    30

 MAXIMUM STEPSIZE WHICH MEETS STABILITY CRITERION OF THE SINK & SOURCE TERM
 =  12.21    (WHEN MIN. R.F.=1)  AT K=  17, I=   1, J=  91

 MAXIMUM STEPSIZE WHICH MEETS STABILITY CRITERION OF THE DISPERSION TERM
 =  4.035    (WHEN MIN. R.F.=1)  AT K=  17, I=   1, J=  90
     1 CALLS TO GCG PACKAGE FOR TRANSPORT TIME STEP 301 IN FLOW TIME STEP   1 STRESS PERIOD   1
     8 TOTAL ITERATIONS
     1 CALLS TO GCG PACKAGE FOR TRANSPORT TIME STEP 301 IN FLOW TIME STEP   1 STRESS PERIOD   1
     8 TOTAL ITERATIONS
 
 SOLVING FOR HEAD 


     2 CALLS TO PCG ROUTINE FOR TIME STEP   1 IN STRESS PERIOD    1
     9 TOTAL ITERATIONS

 MAXIMUM HEAD CHANGE FOR EACH ITERATION (1 INDICATES THE FIRST INNER ITERATION):

    HEAD CHANGE    HEAD CHANGE    HEAD CHANGE    HEAD CHANGE    HEAD CHANGE 
   LAYER,ROW,COL  LAYER,ROW,COL  LAYER,ROW,COL  LAYER,ROW,COL  LAYER,ROW,COL
 ---------------------------------------------------------------------------
  1 -0.1348E-01  0  0.3605E-02  0  0.2336E-02  0  0.1167E-01  0 -0.1208E-01
   ( 15,  1, 86)  ( 17,  1, 89)  (  8,  1, 12)  ( 11,  1, 51)  ( 11,  1, 52)
  0 -0.1707E-02  0  0.1443E-02  0  0.4875E-03  1 -0.6253E-03
   ( 11,  1, 70)  ( 11,  1, 70)  ( 11,  1, 43)  ( 11,  1, 70)

 MAXIMUM RESIDUAL FOR EACH ITERATION (1 INDICATES THE FIRST INNER ITERATION):

    RESIDUAL       RESIDUAL       RESIDUAL       RESIDUAL       RESIDUAL    
   LAYER,ROW,COL  LAYER,ROW,COL  LAYER,ROW,COL  LAYER,ROW,COL  LAYER,ROW,COL
 ---------------------------------------------------------------------------
  1 -0.1308E+06  0  0.9166E+05  0  0.9009E+05  0  0.2850E+05  0   5417.    
   ( 21,  1, 89)  ( 19,  1, 89)  ( 19,  1, 89)  ( 19,  1, 89)  ( 17,  1, 87)
  0  -2877.      0  -2174.      0  -867.8      1  -749.4    
   ( 22,  1, 87)  ( 22,  1, 87)  ( 22,  1, 87)  ( 22,  1, 87)


 FLOW MODEL IS TRANSIENT
 FLOW MODEL CONTAINS CONSTANT-HEAD CELLS


 MAXIMUM STEPSIZE DURING WHICH ANY PARTICLE CANNOT MOVE MORE THAN ONE CELL
 =  13.20    (WHEN MIN. R.F.=1)  AT K=  17, I=   1, J=  90

 MAXIMUM STEPSIZE WHICH MEETS STABILITY CRITERION OF THE ADVECTION TERM
 (FOR PURE FINITE-DIFFERENCE OPTION, MIXELM=0) 
 =  8.001    (WHEN MIN. R.F.=1)  AT K=  16, I=   1, J=  90


 TOTAL NUMBER OF POINT SOURCES/SINKS PRESENT IN THE FLOW MODEL =    30

 MAXIMUM STEPSIZE WHICH MEETS STABILITY CRITERION OF THE SINK & SOURCE TERM
 =  12.17    (WHEN MIN. R.F.=1)  AT K=  17, I=   1, J=  91

 MAXIMUM STEPSIZE WHICH MEETS STABILITY CRITERION OF THE DISPERSION TERM
 =  4.349    (WHEN MIN. R.F.=1)  AT K=  17, I=   1, J=  90
     1 CALLS TO GCG PACKAGE FOR TRANSPORT TIME STEP 302 IN FLOW TIME STEP   1 STRESS PERIOD   1
     9 TOTAL ITERATIONS
     1 CALLS TO GCG PACKAGE FOR TRANSPORT TIME STEP 302 IN FLOW TIME STEP   1 STRESS PERIOD   1
     8 TOTAL ITERATIONS
 
 SOLVING FOR HEAD 


     2 CALLS TO PCG ROUTINE FOR TIME STEP   1 IN STRESS PERIOD    1
     9 TOTAL ITERATIONS

 MAXIMUM HEAD CHANGE FOR EACH ITERATION (1 INDICATES THE FIRST INNER ITERATION):

    HEAD CHANGE    HEAD CHANGE    HEAD CHANGE    HEAD CHANGE    HEAD CHANGE 
   LAYER,ROW,COL  LAYER,ROW,COL  LAYER,ROW,COL  LAYER,ROW,COL  LAYER,ROW,COL
 ---------------------------------------------------------------------------
  1  0.1348E-01  0 -0.3606E-02  0 -0.2352E-02  0 -0.8530E-02  0  0.8736E-02
   ( 15,  1, 86)  ( 17,  1, 89)  (  7,  1, 12)  (  9,  1, 50)  ( 10,  1, 50)
  0  0.1254E-02  0 -0.1333E-02  0 -0.7771E-03  1  0.6372E-03
   ( 11,  1, 54)  ( 11,  1, 54)  ( 11,  1, 70)  ( 11,  1, 70)

 MAXIMUM RESIDUAL FOR EACH ITERATION (1 INDICATES THE FIRST INNER ITERATION):

    RESIDUAL       RESIDUAL       RESIDUAL       RESIDUAL       RESIDUAL    
   LAYER,ROW,COL  LAYER,ROW,COL  LAYER,ROW,COL  LAYER,ROW,COL  LAYER,ROW,COL
 ---------------------------------------------------------------------------
  1  0.1307E+06  0 -0.9160E+05  0 -0.8929E+05  0 -0.3979E+05  0  -5945.    
   ( 21,  1, 89)  ( 19,  1, 89)  ( 19,  1, 89)  ( 19,  1, 89)  ( 17,  1, 87)
  0   2895.      0   2304.      0   842.4      1   725.8    
   ( 22,  1, 87)  ( 22,  1, 87)  ( 22,  1, 87)  ( 22,  1, 87)


 FLOW MODEL IS TRANSIENT
 FLOW MODEL CONTAINS CONSTANT-HEAD CELLS


 MAXIMUM STEPSIZE DURING WHICH ANY PARTICLE CANNOT MOVE MORE THAN ONE CELL
 =  12.87    (WHEN MIN. R.F.=1)  AT K=  17, I=   1, J=  90

 MAXIMUM STEPSIZE WHICH MEETS STABILITY CRITERION OF THE ADVECTION TERM
 (FOR PURE FINITE-DIFFERENCE OPTION, MIXELM=0) 
 =  8.036    (WHEN MIN. R.F.=1)  AT K=  16, I=   1, J=  90


 TOTAL NUMBER OF POINT SOURCES/SINKS PRESENT IN THE FLOW MODEL =    30

 MAXIMUM STEPSIZE WHICH MEETS STABILITY CRITERION OF THE SINK & SOURCE TERM
 =  12.21    (WHEN MIN. R.F.=1)  AT K=  17, I=   1, J=  91

 MAXIMUM STEPSIZE WHICH MEETS STABILITY CRITERION OF THE DISPERSION TERM
 =  4.035    (WHEN MIN. R.F.=1)  AT K=  17, I=   1, J=  90
     1 CALLS TO GCG PACKAGE FOR TRANSPORT TIME STEP 303 IN FLOW TIME STEP   1 STRESS PERIOD   1
     8 TOTAL ITERATIONS
     1 CALLS TO GCG PACKAGE FOR TRANSPORT TIME STEP 303 IN FLOW TIME STEP   1 STRESS PERIOD   1
     8 TOTAL ITERATIONS
 
 SOLVING FOR HEAD 


     2 CALLS TO PCG ROUTINE FOR TIME STEP   1 IN STRESS PERIOD    1
     9 TOTAL ITERATIONS

 MAXIMUM HEAD CHANGE FOR EACH ITERATION (1 INDICATES THE FIRST INNER ITERATION):

    HEAD CHANGE    HEAD CHANGE    HEAD CHANGE    HEAD CHANGE    HEAD CHANGE 
   LAYER,ROW,COL  LAYER,ROW,COL  LAYER,ROW,COL  LAYER,ROW,COL  LAYER,ROW,COL
 ---------------------------------------------------------------------------
  1 -0.1348E-01  0  0.3601E-02  0  0.2334E-02  0  0.1200E-01  0 -0.1231E-01
   ( 15,  1, 86)  ( 17,  1, 89)  (  8,  1, 12)  ( 11,  1, 51)  ( 11,  1, 52)
  0 -0.1672E-02  0  0.1451E-02  0  0.4993E-03  1 -0.6119E-03
   ( 11,  1, 70)  ( 11,  1, 70)  ( 11,  1, 35)  ( 11,  1, 70)

 MAXIMUM RESIDUAL FOR EACH ITERATION (1 INDICATES THE FIRST INNER ITERATION):

    RESIDUAL       RESIDUAL       RESIDUAL       RESIDUAL       RESIDUAL    
   LAYER,ROW,COL  LAYER,ROW,COL  LAYER,ROW,COL  LAYER,ROW,COL  LAYER,ROW,COL
 ---------------------------------------------------------------------------
  1 -0.1307E+06  0  0.9160E+05  0  0.9002E+05  0  0.2839E+05  0   5412.    
   ( 21,  1, 89)  ( 19,  1, 89)  ( 19,  1, 89)  ( 19,  1, 89)  ( 17,  1, 87)
  0  -2877.      0  -2174.      0  -862.7      1  -744.4    
   ( 22,  1, 87)  ( 22,  1, 87)  ( 22,  1, 87)  ( 22,  1, 87)


 FLOW MODEL IS TRANSIENT
 FLOW MODEL CONTAINS CONSTANT-HEAD CELLS


 MAXIMUM STEPSIZE DURING WHICH ANY PARTICLE CANNOT MOVE MORE THAN ONE CELL
 =  13.20    (WHEN MIN. R.F.=1)  AT K=  17, I=   1, J=  90

 MAXIMUM STEPSIZE WHICH MEETS STABILITY CRITERION OF THE ADVECTION TERM
 (FOR PURE FINITE-DIFFERENCE OPTION, MIXELM=0) 
 =  8.001    (WHEN MIN. R.F.=1)  AT K=  16, I=   1, J=  90


 TOTAL NUMBER OF POINT SOURCES/SINKS PRESENT IN THE FLOW MODEL =    30

 MAXIMUM STEPSIZE WHICH MEETS STABILITY CRITERION OF THE SINK & SOURCE TERM
 =  12.17    (WHEN MIN. R.F.=1)  AT K=  17, I=   1, J=  91

 MAXIMUM STEPSIZE WHICH MEETS STABILITY CRITERION OF THE DISPERSION TERM
 =  4.348    (WHEN MIN. R.F.=1)  AT K=  17, I=   1, J=  90
     1 CALLS TO GCG PACKAGE FOR TRANSPORT TIME STEP 304 IN FLOW TIME STEP   1 STRESS PERIOD   1
     9 TOTAL ITERATIONS
     1 CALLS TO GCG PACKAGE FOR TRANSPORT TIME STEP 304 IN FLOW TIME STEP   1 STRESS PERIOD   1
     8 TOTAL ITERATIONS
 
 SOLVING FOR HEAD 


     2 CALLS TO PCG ROUTINE FOR TIME STEP   1 IN STRESS PERIOD    1
     9 TOTAL ITERATIONS

 MAXIMUM HEAD CHANGE FOR EACH ITERATION (1 INDICATES THE FIRST INNER ITERATION):

    HEAD CHANGE    HEAD CHANGE    HEAD CHANGE    HEAD CHANGE    HEAD CHANGE 
   LAYER,ROW,COL  LAYER,ROW,COL  LAYER,ROW,COL  LAYER,ROW,COL  LAYER,ROW,COL
 ---------------------------------------------------------------------------
  1  0.1348E-01  0 -0.3602E-02  0 -0.2362E-02  0 -0.8449E-02  0  0.8701E-02
   ( 15,  1, 86)  ( 17,  1, 89)  (  7,  1, 12)  ( 10,  1, 50)  (  8,  1, 48)
  0  0.1177E-02  0 -0.1232E-02  0 -0.7011E-03  1  0.6164E-03
   ( 11,  1, 54)  ( 11,  1, 54)  ( 11,  1, 70)  ( 11,  1, 70)

 MAXIMUM RESIDUAL FOR EACH ITERATION (1 INDICATES THE FIRST INNER ITERATION):

    RESIDUAL       RESIDUAL       RESIDUAL       RESIDUAL       RESIDUAL    
   LAYER,ROW,COL  LAYER,ROW,COL  LAYER,ROW,COL  LAYER,ROW,COL  LAYER,ROW,COL
 ---------------------------------------------------------------------------
  1  0.1307E+06  0 -0.9155E+05  0 -0.8917E+05  0 -0.3977E+05  0  -5943.    
   ( 21,  1, 89)  ( 19,  1, 89)  ( 19,  1, 89)  ( 19,  1, 89)  ( 17,  1, 87)
  0   2895.      0   2302.      0   839.9      1   723.0    
   ( 22,  1, 87)  ( 22,  1, 87)  ( 22,  1, 87)  ( 22,  1, 87)


 FLOW MODEL IS TRANSIENT
 FLOW MODEL CONTAINS CONSTANT-HEAD CELLS


 MAXIMUM STEPSIZE DURING WHICH ANY PARTICLE CANNOT MOVE MORE THAN ONE CELL
 =  12.87    (WHEN MIN. R.F.=1)  AT K=  17, I=   1, J=  90

 MAXIMUM STEPSIZE WHICH MEETS STABILITY CRITERION OF THE ADVECTION TERM
 (FOR PURE FINITE-DIFFERENCE OPTION, MIXELM=0) 
 =  8.036    (WHEN MIN. R.F.=1)  AT K=  16, I=   1, J=  90


 TOTAL NUMBER OF POINT SOURCES/SINKS PRESENT IN THE FLOW MODEL =    30

 MAXIMUM STEPSIZE WHICH MEETS STABILITY CRITERION OF THE SINK & SOURCE TERM
 =  12.21    (WHEN MIN. R.F.=1)  AT K=  17, I=   1, J=  91

 MAXIMUM STEPSIZE WHICH MEETS STABILITY CRITERION OF THE DISPERSION TERM
 =  4.035    (WHEN MIN. R.F.=1)  AT K=  17, I=   1, J=  90
     1 CALLS TO GCG PACKAGE FOR TRANSPORT TIME STEP 305 IN FLOW TIME STEP   1 STRESS PERIOD   1
     8 TOTAL ITERATIONS
  MAXIMUM CONCENTRATION CHANGES FOR EACH ITERATION:
  MAX. CHANGE LAYER,ROW,COL MAX. CHANGE LAYER,ROW,COL MAX. CHANGE LAYER,ROW,COL MAX. CHANGE LAYER,ROW,COL MAX. CHANGE LAYER,ROW,COL
 ------------------------------------------------------------------------------------------------------------------------------------
   0.5263E-01 ( 20,  1, 87)  0.4132E-02 ( 19,  1, 89)  0.2161E-02 ( 18,  1, 86)  0.4585E-03 ( 20,  1, 89)  0.9567E-04 ( 16,  1, 89)
   0.1996E-04 ( 20,  1, 89)  0.1652E-04 ( 16,  1, 90)  0.7563E-06 ( 17,  1, 90)
     1 CALLS TO GCG PACKAGE FOR TRANSPORT TIME STEP 305 IN FLOW TIME STEP   1 STRESS PERIOD   1
     8 TOTAL ITERATIONS
  MAXIMUM CONCENTRATION CHANGES FOR EACH ITERATION:
  MAX. CHANGE LAYER,ROW,COL MAX. CHANGE LAYER,ROW,COL MAX. CHANGE LAYER,ROW,COL MAX. CHANGE LAYER,ROW,COL MAX. CHANGE LAYER,ROW,COL
 ------------------------------------------------------------------------------------------------------------------------------------
   0.6189E-01 ( 20,  1, 87)  0.4469E-02 ( 19,  1, 89)  0.2066E-02 ( 18,  1, 86)  0.6695E-03 ( 19,  1, 89)  0.1213E-03 ( 16,  1, 89)
   0.3297E-04 ( 23,  1, 87)  0.1304E-04 ( 17,  1, 90)  0.9840E-06 ( 17,  1, 90)
 
 SOLVING FOR HEAD 


     2 CALLS TO PCG ROUTINE FOR TIME STEP   1 IN STRESS PERIOD    1
     9 TOTAL ITERATIONS

 MAXIMUM HEAD CHANGE FOR EACH ITERATION (1 INDICATES THE FIRST INNER ITERATION):

    HEAD CHANGE    HEAD CHANGE    HEAD CHANGE    HEAD CHANGE    HEAD CHANGE 
   LAYER,ROW,COL  LAYER,ROW,COL  LAYER,ROW,COL  LAYER,ROW,COL  LAYER,ROW,COL
 ---------------------------------------------------------------------------
  1 -0.1348E-01  0  0.3597E-02  0  0.2332E-02  0  0.1253E-01  0 -0.1282E-01
   ( 15,  1, 86)  ( 17,  1, 89)  (  8,  1, 12)  ( 11,  1, 51)  ( 11,  1, 51)
  0 -0.1639E-02  0  0.1421E-02  0  0.5191E-03  1 -0.6028E-03
   ( 11,  1, 70)  ( 11,  1, 70)  ( 11,  1, 56)  ( 11,  1, 70)

 MAXIMUM RESIDUAL FOR EACH ITERATION (1 INDICATES THE FIRST INNER ITERATION):

    RESIDUAL       RESIDUAL       RESIDUAL       RESIDUAL       RESIDUAL    
   LAYER,ROW,COL  LAYER,ROW,COL  LAYER,ROW,COL  LAYER,ROW,COL  LAYER,ROW,COL
 ---------------------------------------------------------------------------
  1 -0.1307E+06  0  0.9155E+05  0  0.8998E+05  0  0.2806E+05  0   5395.    
   ( 21,  1, 89)  ( 19,  1, 89)  ( 19,  1, 89)  ( 19,  1, 89)  ( 17,  1, 87)
  0  -2877.      0  -2231.      0  -860.9      1  -742.1    
   ( 22,  1, 87)  ( 22,  1, 87)  ( 22,  1, 87)  ( 22,  1, 87)


 FLOW MODEL IS TRANSIENT
 FLOW MODEL CONTAINS CONSTANT-HEAD CELLS


 MAXIMUM STEPSIZE DURING WHICH ANY PARTICLE CANNOT MOVE MORE THAN ONE CELL
 =  13.20    (WHEN MIN. R.F.=1)  AT K=  17, I=   1, J=  90

 MAXIMUM STEPSIZE WHICH MEETS STABILITY CRITERION OF THE ADVECTION TERM
 (FOR PURE FINITE-DIFFERENCE OPTION, MIXELM=0) 
 =  8.001    (WHEN MIN. R.F.=1)  AT K=  16, I=   1, J=  90


 TOTAL NUMBER OF POINT SOURCES/SINKS PRESENT IN THE FLOW MODEL =    30

 MAXIMUM STEPSIZE WHICH MEETS STABILITY CRITERION OF THE SINK & SOURCE TERM
 =  12.17    (WHEN MIN. R.F.=1)  AT K=  17, I=   1, J=  91

 MAXIMUM STEPSIZE WHICH MEETS STABILITY CRITERION OF THE DISPERSION TERM
 =  4.348    (WHEN MIN. R.F.=1)  AT K=  17, I=   1, J=  90
     1 CALLS TO GCG PACKAGE FOR TRANSPORT TIME STEP 306 IN FLOW TIME STEP   1 STRESS PERIOD   1
     9 TOTAL ITERATIONS
     1 CALLS TO GCG PACKAGE FOR TRANSPORT TIME STEP 306 IN FLOW TIME STEP   1 STRESS PERIOD   1
     8 TOTAL ITERATIONS
 
 SOLVING FOR HEAD 


     2 CALLS TO PCG ROUTINE FOR TIME STEP   1 IN STRESS PERIOD    1
     9 TOTAL ITERATIONS

 MAXIMUM HEAD CHANGE FOR EACH ITERATION (1 INDICATES THE FIRST INNER ITERATION):

    HEAD CHANGE    HEAD CHANGE    HEAD CHANGE    HEAD CHANGE    HEAD CHANGE 
   LAYER,ROW,COL  LAYER,ROW,COL  LAYER,ROW,COL  LAYER,ROW,COL  LAYER,ROW,COL
 ---------------------------------------------------------------------------
  1  0.1348E-01  0 -0.3600E-02  0 -0.2371E-02  0 -0.8320E-02  0  0.8644E-02
   ( 15,  1, 86)  ( 17,  1, 89)  (  7,  1, 12)  ( 10,  1, 47)  (  9,  1, 47)
  0  0.1193E-02  0 -0.1053E-02  0 -0.6825E-03  1  0.5611E-03
   ( 11,  1, 45)  ( 11,  1, 54)  ( 11,  1, 60)  ( 11,  1, 64)

 MAXIMUM RESIDUAL FOR EACH ITERATION (1 INDICATES THE FIRST INNER ITERATION):

    RESIDUAL       RESIDUAL       RESIDUAL       RESIDUAL       RESIDUAL    
   LAYER,ROW,COL  LAYER,ROW,COL  LAYER,ROW,COL  LAYER,ROW,COL  LAYER,ROW,COL
 ---------------------------------------------------------------------------
  1  0.1306E+06  0 -0.9152E+05  0 -0.8908E+05  0 -0.3945E+05  0  -5938.    
   ( 21,  1, 89)  ( 19,  1, 89)  ( 19,  1, 89)  ( 19,  1, 89)  ( 17,  1, 87)
  0   2894.      0   2343.      0   844.5      1   725.9    
   ( 22,  1, 87)  ( 22,  1, 87)  ( 22,  1, 87)  ( 22,  1, 87)


 FLOW MODEL IS TRANSIENT
 FLOW MODEL CONTAINS CONSTANT-HEAD CELLS


 MAXIMUM STEPSIZE DURING WHICH ANY PARTICLE CANNOT MOVE MORE THAN ONE CELL
 =  12.87    (WHEN MIN. R.F.=1)  AT K=  17, I=   1, J=  90

 MAXIMUM STEPSIZE WHICH MEETS STABILITY CRITERION OF THE ADVECTION TERM
 (FOR PURE FINITE-DIFFERENCE OPTION, MIXELM=0) 
 =  8.036    (WHEN MIN. R.F.=1)  AT K=  16, I=   1, J=  90


 TOTAL NUMBER OF POINT SOURCES/SINKS PRESENT IN THE FLOW MODEL =    30

 MAXIMUM STEPSIZE WHICH MEETS STABILITY CRITERION OF THE SINK & SOURCE TERM
 =  12.21    (WHEN MIN. R.F.=1)  AT K=  17, I=   1, J=  91

 MAXIMUM STEPSIZE WHICH MEETS STABILITY CRITERION OF THE DISPERSION TERM
 =  4.035    (WHEN MIN. R.F.=1)  AT K=  17, I=   1, J=  90
     1 CALLS TO GCG PACKAGE FOR TRANSPORT TIME STEP 307 IN FLOW TIME STEP   1 STRESS PERIOD   1
     8 TOTAL ITERATIONS
     1 CALLS TO GCG PACKAGE FOR TRANSPORT TIME STEP 307 IN FLOW TIME STEP   1 STRESS PERIOD   1
     8 TOTAL ITERATIONS
 
 SOLVING FOR HEAD 


     2 CALLS TO PCG ROUTINE FOR TIME STEP   1 IN STRESS PERIOD    1
     9 TOTAL ITERATIONS

 MAXIMUM HEAD CHANGE FOR EACH ITERATION (1 INDICATES THE FIRST INNER ITERATION):

    HEAD CHANGE    HEAD CHANGE    HEAD CHANGE    HEAD CHANGE    HEAD CHANGE 
   LAYER,ROW,COL  LAYER,ROW,COL  LAYER,ROW,COL  LAYER,ROW,COL  LAYER,ROW,COL
 ---------------------------------------------------------------------------
  1 -0.1348E-01  0  0.3597E-02  0  0.2331E-02  0  0.1308E-01  0 -0.1348E-01
   ( 15,  1, 86)  ( 17,  1, 89)  (  8,  1, 12)  ( 11,  1, 51)  ( 11,  1, 51)
  0  0.1579E-02  0  0.1322E-02  0  0.6504E-03  1 -0.5961E-03
   ( 11,  1, 54)  ( 11,  1, 70)  ( 11,  1, 57)  ( 11,  1, 70)

 MAXIMUM RESIDUAL FOR EACH ITERATION (1 INDICATES THE FIRST INNER ITERATION):

    RESIDUAL       RESIDUAL       RESIDUAL       RESIDUAL       RESIDUAL    
   LAYER,ROW,COL  LAYER,ROW,COL  LAYER,ROW,COL  LAYER,ROW,COL  LAYER,ROW,COL
 ---------------------------------------------------------------------------
  1 -0.1306E+06  0  0.9152E+05  0  0.8997E+05  0  0.2690E+05  0   5330.    
   ( 21,  1, 89)  ( 19,  1, 89)  ( 19,  1, 89)  ( 19,  1, 89)  ( 17,  1, 87)
  0  -2874.      0  -2354.      0  -869.3      1  -749.6    
   ( 22,  1, 87)  ( 22,  1, 87)  ( 22,  1, 87)  ( 22,  1, 87)


 FLOW MODEL IS TRANSIENT
 FLOW MODEL CONTAINS CONSTANT-HEAD CELLS


 MAXIMUM STEPSIZE DURING WHICH ANY PARTICLE CANNOT MOVE MORE THAN ONE CELL
 =  13.20    (WHEN MIN. R.F.=1)  AT K=  17, I=   1, J=  90

 MAXIMUM STEPSIZE WHICH MEETS STABILITY CRITERION OF THE ADVECTION TERM
 (FOR PURE FINITE-DIFFERENCE OPTION, MIXELM=0) 
 =  8.001    (WHEN MIN. R.F.=1)  AT K=  16, I=   1, J=  90


 TOTAL NUMBER OF POINT SOURCES/SINKS PRESENT IN THE FLOW MODEL =    30

 MAXIMUM STEPSIZE WHICH MEETS STABILITY CRITERION OF THE SINK & SOURCE TERM
 =  12.17    (WHEN MIN. R.F.=1)  AT K=  17, I=   1, J=  91

 MAXIMUM STEPSIZE WHICH MEETS STABILITY CRITERION OF THE DISPERSION TERM
 =  4.348    (WHEN MIN. R.F.=1)  AT K=  17, I=   1, J=  90
     1 CALLS TO GCG PACKAGE FOR TRANSPORT TIME STEP 308 IN FLOW TIME STEP   1 STRESS PERIOD   1
     9 TOTAL ITERATIONS
     1 CALLS TO GCG PACKAGE FOR TRANSPORT TIME STEP 308 IN FLOW TIME STEP   1 STRESS PERIOD   1
     8 TOTAL ITERATIONS
 
 SOLVING FOR HEAD 


     2 CALLS TO PCG ROUTINE FOR TIME STEP   1 IN STRESS PERIOD    1
     8 TOTAL ITERATIONS

 MAXIMUM HEAD CHANGE FOR EACH ITERATION (1 INDICATES THE FIRST INNER ITERATION):

    HEAD CHANGE    HEAD CHANGE    HEAD CHANGE    HEAD CHANGE    HEAD CHANGE 
   LAYER,ROW,COL  LAYER,ROW,COL  LAYER,ROW,COL  LAYER,ROW,COL  LAYER,ROW,COL
 ---------------------------------------------------------------------------
  1  0.1348E-01  0 -0.3602E-02  0 -0.2366E-02  0 -0.8132E-02  0  0.8499E-02
   ( 15,  1, 86)  ( 17,  1, 89)  (  7,  1, 12)  (  9,  1, 45)  (  6,  1, 45)
  0  0.1357E-02  0 -0.8012E-03  1 -0.7723E-03
   ( 11,  1, 45)  ( 11,  1, 65)  ( 11,  1, 60)

 MAXIMUM RESIDUAL FOR EACH ITERATION (1 INDICATES THE FIRST INNER ITERATION):

    RESIDUAL       RESIDUAL       RESIDUAL       RESIDUAL       RESIDUAL    
   LAYER,ROW,COL  LAYER,ROW,COL  LAYER,ROW,COL  LAYER,ROW,COL  LAYER,ROW,COL
 ---------------------------------------------------------------------------
  1  0.1306E+06  0 -0.9152E+05  0 -0.8911E+05  0 -0.3823E+05  0  -5923.    
   ( 21,  1, 89)  ( 19,  1, 89)  ( 19,  1, 89)  ( 19,  1, 89)  ( 17,  1, 87)
  0   2891.      0   2428.      1   2055.    
   ( 22,  1, 87)  ( 22,  1, 87)  ( 22,  1, 87)


 FLOW MODEL IS TRANSIENT
 FLOW MODEL CONTAINS CONSTANT-HEAD CELLS


 MAXIMUM STEPSIZE DURING WHICH ANY PARTICLE CANNOT MOVE MORE THAN ONE CELL
 =  12.86    (WHEN MIN. R.F.=1)  AT K=  17, I=   1, J=  90

 MAXIMUM STEPSIZE WHICH MEETS STABILITY CRITERION OF THE ADVECTION TERM
 (FOR PURE FINITE-DIFFERENCE OPTION, MIXELM=0) 
 =  8.031    (WHEN MIN. R.F.=1)  AT K=  16, I=   1, J=  90


 TOTAL NUMBER OF POINT SOURCES/SINKS PRESENT IN THE FLOW MODEL =    30

 MAXIMUM STEPSIZE WHICH MEETS STABILITY CRITERION OF THE SINK & SOURCE TERM
 =  12.20    (WHEN MIN. R.F.=1)  AT K=  17, I=   1, J=  91

 MAXIMUM STEPSIZE WHICH MEETS STABILITY CRITERION OF THE DISPERSION TERM
 =  4.031    (WHEN MIN. R.F.=1)  AT K=  17, I=   1, J=  90
     1 CALLS TO GCG PACKAGE FOR TRANSPORT TIME STEP 309 IN FLOW TIME STEP   1 STRESS PERIOD   1
     8 TOTAL ITERATIONS
     1 CALLS TO GCG PACKAGE FOR TRANSPORT TIME STEP 309 IN FLOW TIME STEP   1 STRESS PERIOD   1
     8 TOTAL ITERATIONS
 
 SOLVING FOR HEAD 


     2 CALLS TO PCG ROUTINE FOR TIME STEP   1 IN STRESS PERIOD    1
     9 TOTAL ITERATIONS

 MAXIMUM HEAD CHANGE FOR EACH ITERATION (1 INDICATES THE FIRST INNER ITERATION):

    HEAD CHANGE    HEAD CHANGE    HEAD CHANGE    HEAD CHANGE    HEAD CHANGE 
   LAYER,ROW,COL  LAYER,ROW,COL  LAYER,ROW,COL  LAYER,ROW,COL  LAYER,ROW,COL
 ---------------------------------------------------------------------------
  1 -0.1376E-01  0 -0.5479E-02  0  0.4066E-02  0  0.1355E-01  0  0.1286E-01
   ( 15,  1, 86)  ( 11,  1, 60)  (  8,  1, 12)  ( 11,  1, 60)  ( 11,  1, 49)
  0  0.3308E-02  0 -0.1052E-02  0  0.8410E-03  1 -0.6693E-03
   ( 11,  1, 65)  ( 11,  1, 66)  ( 11,  1, 70)  ( 11,  1, 70)

 MAXIMUM RESIDUAL FOR EACH ITERATION (1 INDICATES THE FIRST INNER ITERATION):

    RESIDUAL       RESIDUAL       RESIDUAL       RESIDUAL       RESIDUAL    
   LAYER,ROW,COL  LAYER,ROW,COL  LAYER,ROW,COL  LAYER,ROW,COL  LAYER,ROW,COL
 ---------------------------------------------------------------------------
  1 -0.1328E+06  0  0.9374E+05  0  0.9300E+05  0  0.5364E+05  0   5381.    
   ( 21,  1, 89)  ( 19,  1, 89)  ( 19,  1, 89)  ( 19,  1, 89)  ( 17,  1, 87)
  0  -2785.      0  -2618.      0  -1674.      1  -1470.    
   ( 22,  1, 87)  ( 22,  1, 87)  ( 22,  1, 87)  ( 22,  1, 87)


 FLOW MODEL IS TRANSIENT
 FLOW MODEL CONTAINS CONSTANT-HEAD CELLS


 MAXIMUM STEPSIZE DURING WHICH ANY PARTICLE CANNOT MOVE MORE THAN ONE CELL
 =  13.16    (WHEN MIN. R.F.=1)  AT K=  17, I=   1, J=  90

 MAXIMUM STEPSIZE WHICH MEETS STABILITY CRITERION OF THE ADVECTION TERM
 (FOR PURE FINITE-DIFFERENCE OPTION, MIXELM=0) 
 =  7.980    (WHEN MIN. R.F.=1)  AT K=  16, I=   1, J=  90


 TOTAL NUMBER OF POINT SOURCES/SINKS PRESENT IN THE FLOW MODEL =    30

 MAXIMUM STEPSIZE WHICH MEETS STABILITY CRITERION OF THE SINK & SOURCE TERM
 =  12.10    (WHEN MIN. R.F.=1)  AT K=  17, I=   1, J=  91

 MAXIMUM STEPSIZE WHICH MEETS STABILITY CRITERION OF THE DISPERSION TERM
 =  4.332    (WHEN MIN. R.F.=1)  AT K=  17, I=   1, J=  90
     1 CALLS TO GCG PACKAGE FOR TRANSPORT TIME STEP 310 IN FLOW TIME STEP   1 STRESS PERIOD   1
    10 TOTAL ITERATIONS
  MAXIMUM CONCENTRATION CHANGES FOR EACH ITERATION:
  MAX. CHANGE LAYER,ROW,COL MAX. CHANGE LAYER,ROW,COL MAX. CHANGE LAYER,ROW,COL MAX. CHANGE LAYER,ROW,COL MAX. CHANGE LAYER,ROW,COL
 ------------------------------------------------------------------------------------------------------------------------------------
   0.4886E-01 ( 20,  1, 87)  0.3273E-02 ( 19,  1, 87)  0.2131E-02 ( 18,  1, 87)  0.2109E-03 ( 16,  1, 88)  0.1434E-03 ( 16,  1, 89)
   0.2695E-04 ( 16,  1, 90)  0.3252E-05 ( 21,  1, 78)  0.1132E-05 ( 15,  1, 89)  0.1217E-05 ( 16,  1, 89)  0.1218E-06 ( 17,  1, 89)
     1 CALLS TO GCG PACKAGE FOR TRANSPORT TIME STEP 310 IN FLOW TIME STEP   1 STRESS PERIOD   1
     8 TOTAL ITERATIONS
  MAXIMUM CONCENTRATION CHANGES FOR EACH ITERATION:
  MAX. CHANGE LAYER,ROW,COL MAX. CHANGE LAYER,ROW,COL MAX. CHANGE LAYER,ROW,COL MAX. CHANGE LAYER,ROW,COL MAX. CHANGE LAYER,ROW,COL
 ------------------------------------------------------------------------------------------------------------------------------------
   0.5718E-01 ( 20,  1, 87)  0.4970E-02 ( 19,  1, 87)  0.2298E-02 ( 18,  1, 87)  0.4593E-03 ( 18,  1, 87)  0.1368E-03 ( 17,  1, 89)
   0.3806E-04 ( 17,  1, 90)  0.6200E-05 ( 17,  1, 90)  0.5457E-06 ( 16,  1, 89)



 >>>>>>>>>>>>>>>>>>>>>>>>>>>>>>>>>>>>>>>>>>>>>>>>>>>>>>>FOR COMPONENT NO. 01<<<<<<<<<<<<<<<<<<<<<<<<<<<<<<<<<<<<<<<<<<<<<<<<<<<<<<<


                                            -------------------------------------------
                                                      TRANSPORT STEP NO.  310
                                            -------------------------------------------

 TOTAL ELAPSED TIME SINCE BEGINNING OF SIMULATION =   15500.00    D   
 .....................................................................

                     CUMMULATIVE MASS BUDGETS AT END OF TRANSPORT STEP  310, TIME STEP    1, STRESS PERIOD    1
                     ------------------------------------------------------------------------------------------

                                                             IN                           OUT
                                                      ----------------             ----------------
                               CONSTANT CONCENTRATION:    0.000000                    0.000000    
                                        CONSTANT HEAD:   0.6136257E+09              -0.6134297E+09
                                                WELLS:    0.000000                    0.000000    
                                             RECHARGE:    0.000000                    0.000000    
                               1ST/0TH ORDER REACTION:    0.000000                    0.000000    
                                MASS STORAGE (SOLUTE):   0.8583976E+08              -0.8603587E+08
                            ---------------------------------------------------------------------------
                                              [TOTAL]:   0.6994662E+09 KG           -0.6994663E+09 KG  

                                                          NET (IN - OUT):   -111.5127    
                                                   DISCREPANCY (PERCENT):  -0.1594254E-04



 >>>>>>>>>>>>>>>>>>>>>>>>>>>>>>>>>>>>>>>>>>>>>>>>>>>>>>>FOR COMPONENT NO. 02<<<<<<<<<<<<<<<<<<<<<<<<<<<<<<<<<<<<<<<<<<<<<<<<<<<<<<<


                                            -------------------------------------------
                                                      TRANSPORT STEP NO.  310
                                            -------------------------------------------

 TOTAL ELAPSED TIME SINCE BEGINNING OF SIMULATION =   15500.00    D   
 .....................................................................

                     CUMMULATIVE MASS BUDGETS AT END OF TRANSPORT STEP  310, TIME STEP    1, STRESS PERIOD    1
                     ------------------------------------------------------------------------------------------

                                                             IN                           OUT
                                                      ----------------             ----------------
                               CONSTANT CONCENTRATION:    0.000000                    0.000000    
                                        CONSTANT HEAD:    0.000000                  -0.6632911E+11
                                                WELLS:    0.000000                    0.000000    
                                             RECHARGE:    0.000000                    0.000000    
                               1ST/0TH ORDER REACTION:   0.2565250E+12                0.000000    
                                MASS STORAGE (SOLUTE):   0.1724834E+11              -0.2074442E+12
                            ---------------------------------------------------------------------------
                                              [TOTAL]:   0.2737736E+12 KG           -0.2737736E+12 KG  

                                                          NET (IN - OUT):   -14135.06    
                                                   DISCREPANCY (PERCENT):  -0.5163048E-05
 
 SOLVING FOR HEAD 


     2 CALLS TO PCG ROUTINE FOR TIME STEP   1 IN STRESS PERIOD    1
     9 TOTAL ITERATIONS

 MAXIMUM HEAD CHANGE FOR EACH ITERATION (1 INDICATES THE FIRST INNER ITERATION):

    HEAD CHANGE    HEAD CHANGE    HEAD CHANGE    HEAD CHANGE    HEAD CHANGE 
   LAYER,ROW,COL  LAYER,ROW,COL  LAYER,ROW,COL  LAYER,ROW,COL  LAYER,ROW,COL
 ---------------------------------------------------------------------------
  1  0.1376E-01  0 -0.4124E-02  0 -0.3833E-02  0  0.8833E-02  0 -0.8857E-02
   ( 15,  1, 86)  ( 17,  1, 89)  (  8,  1, 12)  (  7,  1, 45)  (  7,  1, 45)
  0 -0.1990E-02  0  0.1296E-02  0 -0.8801E-03  1  0.7644E-03
   ( 11,  1, 50)  ( 11,  1, 50)  ( 11,  1, 54)  ( 11,  1, 55)

 MAXIMUM RESIDUAL FOR EACH ITERATION (1 INDICATES THE FIRST INNER ITERATION):

    RESIDUAL       RESIDUAL       RESIDUAL       RESIDUAL       RESIDUAL    
   LAYER,ROW,COL  LAYER,ROW,COL  LAYER,ROW,COL  LAYER,ROW,COL  LAYER,ROW,COL
 ---------------------------------------------------------------------------
  1  0.1332E+06  0 -0.9527E+05  0 -0.9447E+05  0 -0.3170E+05  0   5595.    
   ( 21,  1, 89)  ( 19,  1, 89)  ( 19,  1, 89)  ( 19,  1, 89)  ( 17,  1, 88)
  0   2773.      0   2491.      0   1026.      1   900.8    
   ( 22,  1, 87)  ( 22,  1, 87)  ( 22,  1, 87)  ( 22,  1, 87)


 FLOW MODEL IS TRANSIENT
 FLOW MODEL CONTAINS CONSTANT-HEAD CELLS


 MAXIMUM STEPSIZE DURING WHICH ANY PARTICLE CANNOT MOVE MORE THAN ONE CELL
 =  12.86    (WHEN MIN. R.F.=1)  AT K=  17, I=   1, J=  90

 MAXIMUM STEPSIZE WHICH MEETS STABILITY CRITERION OF THE ADVECTION TERM
 (FOR PURE FINITE-DIFFERENCE OPTION, MIXELM=0) 
 =  8.038    (WHEN MIN. R.F.=1)  AT K=  16, I=   1, J=  90


 TOTAL NUMBER OF POINT SOURCES/SINKS PRESENT IN THE FLOW MODEL =    30

 MAXIMUM STEPSIZE WHICH MEETS STABILITY CRITERION OF THE SINK & SOURCE TERM
 =  12.20    (WHEN MIN. R.F.=1)  AT K=  17, I=   1, J=  91

 MAXIMUM STEPSIZE WHICH MEETS STABILITY CRITERION OF THE DISPERSION TERM
 =  4.026    (WHEN MIN. R.F.=1)  AT K=  17, I=   1, J=  90
     1 CALLS TO GCG PACKAGE FOR TRANSPORT TIME STEP 311 IN FLOW TIME STEP   1 STRESS PERIOD   1
     8 TOTAL ITERATIONS
     1 CALLS TO GCG PACKAGE FOR TRANSPORT TIME STEP 311 IN FLOW TIME STEP   1 STRESS PERIOD   1
     8 TOTAL ITERATIONS
 
 SOLVING FOR HEAD 


     2 CALLS TO PCG ROUTINE FOR TIME STEP   1 IN STRESS PERIOD    1
     8 TOTAL ITERATIONS

 MAXIMUM HEAD CHANGE FOR EACH ITERATION (1 INDICATES THE FIRST INNER ITERATION):

    HEAD CHANGE    HEAD CHANGE    HEAD CHANGE    HEAD CHANGE    HEAD CHANGE 
   LAYER,ROW,COL  LAYER,ROW,COL  LAYER,ROW,COL  LAYER,ROW,COL  LAYER,ROW,COL
 ---------------------------------------------------------------------------
  1 -0.1349E-01  0  0.3801E-02  0  0.3174E-02  0 -0.1145E-01  0  0.1120E-01
   ( 15,  1, 86)  ( 17,  1, 89)  (  8,  1, 12)  ( 11,  1, 54)  ( 11,  1, 53)
  0 -0.1917E-02  0  0.7541E-03  1  0.5329E-03
   ( 11,  1, 50)  ( 11,  1, 38)  (  7,  1, 42)

 MAXIMUM RESIDUAL FOR EACH ITERATION (1 INDICATES THE FIRST INNER ITERATION):

    RESIDUAL       RESIDUAL       RESIDUAL       RESIDUAL       RESIDUAL    
   LAYER,ROW,COL  LAYER,ROW,COL  LAYER,ROW,COL  LAYER,ROW,COL  LAYER,ROW,COL
 ---------------------------------------------------------------------------
  1 -0.1297E+06  0  0.9074E+05  0  0.8986E+05  0  0.2478E+05  0   5513.    
   ( 21,  1, 89)  ( 19,  1, 89)  ( 19,  1, 89)  ( 19,  1, 89)  ( 17,  1, 87)
  0  -2883.      0  -2557.      1  -2119.    
   ( 22,  1, 87)  ( 22,  1, 87)  ( 22,  1, 87)


 FLOW MODEL IS TRANSIENT
 FLOW MODEL CONTAINS CONSTANT-HEAD CELLS


 MAXIMUM STEPSIZE DURING WHICH ANY PARTICLE CANNOT MOVE MORE THAN ONE CELL
 =  13.24    (WHEN MIN. R.F.=1)  AT K=  17, I=   1, J=  90

 MAXIMUM STEPSIZE WHICH MEETS STABILITY CRITERION OF THE ADVECTION TERM
 (FOR PURE FINITE-DIFFERENCE OPTION, MIXELM=0) 
 =  8.012    (WHEN MIN. R.F.=1)  AT K=  16, I=   1, J=  90


 TOTAL NUMBER OF POINT SOURCES/SINKS PRESENT IN THE FLOW MODEL =    30

 MAXIMUM STEPSIZE WHICH MEETS STABILITY CRITERION OF THE SINK & SOURCE TERM
 =  12.18    (WHEN MIN. R.F.=1)  AT K=  17, I=   1, J=  91

 MAXIMUM STEPSIZE WHICH MEETS STABILITY CRITERION OF THE DISPERSION TERM
 =  4.372    (WHEN MIN. R.F.=1)  AT K=  17, I=   1, J=  90
     1 CALLS TO GCG PACKAGE FOR TRANSPORT TIME STEP 312 IN FLOW TIME STEP   1 STRESS PERIOD   1
    10 TOTAL ITERATIONS
     1 CALLS TO GCG PACKAGE FOR TRANSPORT TIME STEP 312 IN FLOW TIME STEP   1 STRESS PERIOD   1
     8 TOTAL ITERATIONS
 
 SOLVING FOR HEAD 


     2 CALLS TO PCG ROUTINE FOR TIME STEP   1 IN STRESS PERIOD    1
     9 TOTAL ITERATIONS

 MAXIMUM HEAD CHANGE FOR EACH ITERATION (1 INDICATES THE FIRST INNER ITERATION):

    HEAD CHANGE    HEAD CHANGE    HEAD CHANGE    HEAD CHANGE    HEAD CHANGE 
   LAYER,ROW,COL  LAYER,ROW,COL  LAYER,ROW,COL  LAYER,ROW,COL  LAYER,ROW,COL
 ---------------------------------------------------------------------------
  1  0.1371E-01  0  0.7775E-02  0 -0.3403E-02  0 -0.9543E-02  0  0.6583E-02
   ( 15,  1, 86)  (  6,  1, 42)  (  7,  1, 12)  (  8,  1, 44)  (  6,  1, 46)
  0  0.3422E-02  0 -0.1554E-02  0 -0.9711E-03  1  0.7539E-03
   ( 11,  1, 54)  ( 11,  1, 53)  ( 11,  1, 65)  ( 11,  1, 65)

 MAXIMUM RESIDUAL FOR EACH ITERATION (1 INDICATES THE FIRST INNER ITERATION):

    RESIDUAL       RESIDUAL       RESIDUAL       RESIDUAL       RESIDUAL    
   LAYER,ROW,COL  LAYER,ROW,COL  LAYER,ROW,COL  LAYER,ROW,COL  LAYER,ROW,COL
 ---------------------------------------------------------------------------
  1  0.1347E+06  0 -0.9547E+05  0 -0.9452E+05  0 -0.7628E+05  0  -5997.    
   ( 21,  1, 89)  ( 19,  1, 89)  ( 19,  1, 89)  ( 19,  1, 89)  ( 17,  1, 87)
  0   2839.      0   2593.      0   1269.      1   1114.    
   ( 17,  1, 88)  ( 22,  1, 87)  ( 22,  1, 87)  ( 22,  1, 87)


 FLOW MODEL IS TRANSIENT
 FLOW MODEL CONTAINS CONSTANT-HEAD CELLS


 MAXIMUM STEPSIZE DURING WHICH ANY PARTICLE CANNOT MOVE MORE THAN ONE CELL
 =  12.92    (WHEN MIN. R.F.=1)  AT K=  17, I=   1, J=  90

 MAXIMUM STEPSIZE WHICH MEETS STABILITY CRITERION OF THE ADVECTION TERM
 (FOR PURE FINITE-DIFFERENCE OPTION, MIXELM=0) 
 =  8.063    (WHEN MIN. R.F.=1)  AT K=  16, I=   1, J=  90


 TOTAL NUMBER OF POINT SOURCES/SINKS PRESENT IN THE FLOW MODEL =    30

 MAXIMUM STEPSIZE WHICH MEETS STABILITY CRITERION OF THE SINK & SOURCE TERM
 =  12.29    (WHEN MIN. R.F.=1)  AT K=  17, I=   1, J=  91

 MAXIMUM STEPSIZE WHICH MEETS STABILITY CRITERION OF THE DISPERSION TERM
 =  4.051    (WHEN MIN. R.F.=1)  AT K=  17, I=   1, J=  90
     1 CALLS TO GCG PACKAGE FOR TRANSPORT TIME STEP 313 IN FLOW TIME STEP   1 STRESS PERIOD   1
     8 TOTAL ITERATIONS
     1 CALLS TO GCG PACKAGE FOR TRANSPORT TIME STEP 313 IN FLOW TIME STEP   1 STRESS PERIOD   1
     8 TOTAL ITERATIONS
 
 SOLVING FOR HEAD 


     2 CALLS TO PCG ROUTINE FOR TIME STEP   1 IN STRESS PERIOD    1
     8 TOTAL ITERATIONS

 MAXIMUM HEAD CHANGE FOR EACH ITERATION (1 INDICATES THE FIRST INNER ITERATION):

    HEAD CHANGE    HEAD CHANGE    HEAD CHANGE    HEAD CHANGE    HEAD CHANGE 
   LAYER,ROW,COL  LAYER,ROW,COL  LAYER,ROW,COL  LAYER,ROW,COL  LAYER,ROW,COL
 ---------------------------------------------------------------------------
  1 -0.1374E-01  0  0.4089E-02  0  0.4196E-02  0 -0.8323E-02  0 -0.8750E-02
   ( 15,  1, 86)  ( 17,  1, 89)  (  8,  1, 12)  ( 11,  1, 66)  ( 11,  1, 59)
  0  0.2654E-02  0  0.9801E-03  1  0.7450E-03
   ( 11,  1, 55)  ( 11,  1, 70)  ( 11,  1, 54)

 MAXIMUM RESIDUAL FOR EACH ITERATION (1 INDICATES THE FIRST INNER ITERATION):

    RESIDUAL       RESIDUAL       RESIDUAL       RESIDUAL       RESIDUAL    
   LAYER,ROW,COL  LAYER,ROW,COL  LAYER,ROW,COL  LAYER,ROW,COL  LAYER,ROW,COL
 ---------------------------------------------------------------------------
  1 -0.1357E+06  0  0.9641E+05  0  0.9567E+05  0  0.1757E+05  0  -4672.    
   ( 21,  1, 89)  ( 19,  1, 89)  ( 19,  1, 89)  ( 19,  1, 89)  ( 17,  1, 88)
  0  -2819.      0  -2401.      1  -1954.    
   ( 22,  1, 87)  ( 22,  1, 87)  ( 22,  1, 87)


 FLOW MODEL IS TRANSIENT
 FLOW MODEL CONTAINS CONSTANT-HEAD CELLS


 MAXIMUM STEPSIZE DURING WHICH ANY PARTICLE CANNOT MOVE MORE THAN ONE CELL
 =  13.25    (WHEN MIN. R.F.=1)  AT K=  17, I=   1, J=  90

 MAXIMUM STEPSIZE WHICH MEETS STABILITY CRITERION OF THE ADVECTION TERM
 (FOR PURE FINITE-DIFFERENCE OPTION, MIXELM=0) 
 =  8.014    (WHEN MIN. R.F.=1)  AT K=  16, I=   1, J=  90


 TOTAL NUMBER OF POINT SOURCES/SINKS PRESENT IN THE FLOW MODEL =    30

 MAXIMUM STEPSIZE WHICH MEETS STABILITY CRITERION OF THE SINK & SOURCE TERM
 =  12.20    (WHEN MIN. R.F.=1)  AT K=  17, I=   1, J=  91

 MAXIMUM STEPSIZE WHICH MEETS STABILITY CRITERION OF THE DISPERSION TERM
 =  4.380    (WHEN MIN. R.F.=1)  AT K=  17, I=   1, J=  90
     1 CALLS TO GCG PACKAGE FOR TRANSPORT TIME STEP 314 IN FLOW TIME STEP   1 STRESS PERIOD   1
    10 TOTAL ITERATIONS
     1 CALLS TO GCG PACKAGE FOR TRANSPORT TIME STEP 314 IN FLOW TIME STEP   1 STRESS PERIOD   1
     8 TOTAL ITERATIONS
 
 SOLVING FOR HEAD 


     2 CALLS TO PCG ROUTINE FOR TIME STEP   1 IN STRESS PERIOD    1
     9 TOTAL ITERATIONS

 MAXIMUM HEAD CHANGE FOR EACH ITERATION (1 INDICATES THE FIRST INNER ITERATION):

    HEAD CHANGE    HEAD CHANGE    HEAD CHANGE    HEAD CHANGE    HEAD CHANGE 
   LAYER,ROW,COL  LAYER,ROW,COL  LAYER,ROW,COL  LAYER,ROW,COL  LAYER,ROW,COL
 ---------------------------------------------------------------------------
  1  0.1362E-01  0  0.5947E-02  0 -0.2949E-02  0 -0.1631E-01  0  0.1472E-01
   ( 15,  1, 86)  ( 11,  1, 54)  (  7,  1, 12)  ( 11,  1, 54)  ( 11,  1, 54)
  0 -0.4193E-02  0 -0.1538E-02  0 -0.5031E-03  1 -0.4130E-03
   ( 11,  1, 50)  ( 11,  1, 65)  ( 11,  1, 35)  (  8,  1, 45)

 MAXIMUM RESIDUAL FOR EACH ITERATION (1 INDICATES THE FIRST INNER ITERATION):

    RESIDUAL       RESIDUAL       RESIDUAL       RESIDUAL       RESIDUAL    
   LAYER,ROW,COL  LAYER,ROW,COL  LAYER,ROW,COL  LAYER,ROW,COL  LAYER,ROW,COL
 ---------------------------------------------------------------------------
  1  0.1369E+06  0 -0.9767E+05  0 -0.9658E+05  0 -0.5002E+05  0   5505.    
   ( 21,  1, 89)  ( 19,  1, 89)  ( 19,  1, 89)  ( 19,  1, 89)  ( 17,  1, 88)
  0   2859.      0   2534.      0   1382.      1   1243.    
   ( 17,  1, 88)  ( 22,  1, 87)  ( 22,  1, 87)  ( 22,  1, 87)


 FLOW MODEL IS TRANSIENT
 FLOW MODEL CONTAINS CONSTANT-HEAD CELLS


 MAXIMUM STEPSIZE DURING WHICH ANY PARTICLE CANNOT MOVE MORE THAN ONE CELL
 =  12.89    (WHEN MIN. R.F.=1)  AT K=  17, I=   1, J=  90

 MAXIMUM STEPSIZE WHICH MEETS STABILITY CRITERION OF THE ADVECTION TERM
 (FOR PURE FINITE-DIFFERENCE OPTION, MIXELM=0) 
 =  8.055    (WHEN MIN. R.F.=1)  AT K=  16, I=   1, J=  90


 TOTAL NUMBER OF POINT SOURCES/SINKS PRESENT IN THE FLOW MODEL =    30

 MAXIMUM STEPSIZE WHICH MEETS STABILITY CRITERION OF THE SINK & SOURCE TERM
 =  12.26    (WHEN MIN. R.F.=1)  AT K=  17, I=   1, J=  91

 MAXIMUM STEPSIZE WHICH MEETS STABILITY CRITERION OF THE DISPERSION TERM
 =  4.037    (WHEN MIN. R.F.=1)  AT K=  17, I=   1, J=  90
     1 CALLS TO GCG PACKAGE FOR TRANSPORT TIME STEP 315 IN FLOW TIME STEP   1 STRESS PERIOD   1
     8 TOTAL ITERATIONS
  MAXIMUM CONCENTRATION CHANGES FOR EACH ITERATION:
  MAX. CHANGE LAYER,ROW,COL MAX. CHANGE LAYER,ROW,COL MAX. CHANGE LAYER,ROW,COL MAX. CHANGE LAYER,ROW,COL MAX. CHANGE LAYER,ROW,COL
 ------------------------------------------------------------------------------------------------------------------------------------
   0.5200E-01 ( 20,  1, 87)  0.4290E-02 ( 19,  1, 89)  0.2078E-02 ( 17,  1, 86)  0.4965E-03 ( 20,  1, 89)  0.9435E-04 ( 16,  1, 89)
   0.2098E-04 ( 20,  1, 89)  0.2221E-04 ( 16,  1, 90)  0.6433E-06 ( 17,  1, 90)
     1 CALLS TO GCG PACKAGE FOR TRANSPORT TIME STEP 315 IN FLOW TIME STEP   1 STRESS PERIOD   1
     8 TOTAL ITERATIONS
  MAXIMUM CONCENTRATION CHANGES FOR EACH ITERATION:
  MAX. CHANGE LAYER,ROW,COL MAX. CHANGE LAYER,ROW,COL MAX. CHANGE LAYER,ROW,COL MAX. CHANGE LAYER,ROW,COL MAX. CHANGE LAYER,ROW,COL
 ------------------------------------------------------------------------------------------------------------------------------------
   0.6176E-01 ( 20,  1, 87)  0.4731E-02 ( 19,  1, 89)  0.2116E-02 ( 19,  1, 89)  0.7127E-03 ( 19,  1, 89)  0.1364E-03 ( 16,  1, 89)
   0.4390E-04 ( 16,  1, 89)  0.1707E-04 ( 17,  1, 90)  0.9387E-06 ( 17,  1, 90)
 
 SOLVING FOR HEAD 


     2 CALLS TO PCG ROUTINE FOR TIME STEP   1 IN STRESS PERIOD    1
     8 TOTAL ITERATIONS

 MAXIMUM HEAD CHANGE FOR EACH ITERATION (1 INDICATES THE FIRST INNER ITERATION):

    HEAD CHANGE    HEAD CHANGE    HEAD CHANGE    HEAD CHANGE    HEAD CHANGE 
   LAYER,ROW,COL  LAYER,ROW,COL  LAYER,ROW,COL  LAYER,ROW,COL  LAYER,ROW,COL
 ---------------------------------------------------------------------------
  1 -0.1376E-01  0 -0.4490E-02  0  0.5111E-02  0  0.8480E-02  0 -0.8418E-02
   ( 15,  1, 86)  (  7,  1, 12)  (  8,  1, 12)  (  9,  1, 46)  (  9,  1, 47)
  0  0.1657E-02  0 -0.7490E-03  1  0.7783E-03
   ( 11,  1, 69)  ( 11,  1, 60)  ( 11,  1, 60)

 MAXIMUM RESIDUAL FOR EACH ITERATION (1 INDICATES THE FIRST INNER ITERATION):

    RESIDUAL       RESIDUAL       RESIDUAL       RESIDUAL       RESIDUAL    
   LAYER,ROW,COL  LAYER,ROW,COL  LAYER,ROW,COL  LAYER,ROW,COL  LAYER,ROW,COL
 ---------------------------------------------------------------------------
  1 -0.1360E+06  0  0.9626E+05  0  0.9571E+05  0  0.3443E+05  0   5795.    
   ( 21,  1, 89)  ( 19,  1, 89)  ( 19,  1, 89)  ( 19,  1, 89)  ( 17,  1, 87)
  0  -2849.      0  -2245.      1  -1960.    
   ( 22,  1, 87)  ( 22,  1, 87)  ( 22,  1, 87)


 FLOW MODEL IS TRANSIENT
 FLOW MODEL CONTAINS CONSTANT-HEAD CELLS


 MAXIMUM STEPSIZE DURING WHICH ANY PARTICLE CANNOT MOVE MORE THAN ONE CELL
 =  13.25    (WHEN MIN. R.F.=1)  AT K=  17, I=   1, J=  90

 MAXIMUM STEPSIZE WHICH MEETS STABILITY CRITERION OF THE ADVECTION TERM
 (FOR PURE FINITE-DIFFERENCE OPTION, MIXELM=0) 
 =  8.013    (WHEN MIN. R.F.=1)  AT K=  16, I=   1, J=  90


 TOTAL NUMBER OF POINT SOURCES/SINKS PRESENT IN THE FLOW MODEL =    30

 MAXIMUM STEPSIZE WHICH MEETS STABILITY CRITERION OF THE SINK & SOURCE TERM
 =  12.19    (WHEN MIN. R.F.=1)  AT K=  17, I=   1, J=  91

 MAXIMUM STEPSIZE WHICH MEETS STABILITY CRITERION OF THE DISPERSION TERM
 =  4.384    (WHEN MIN. R.F.=1)  AT K=  17, I=   1, J=  90
     1 CALLS TO GCG PACKAGE FOR TRANSPORT TIME STEP 316 IN FLOW TIME STEP   1 STRESS PERIOD   1
     7 TOTAL ITERATIONS
     1 CALLS TO GCG PACKAGE FOR TRANSPORT TIME STEP 316 IN FLOW TIME STEP   1 STRESS PERIOD   1
     8 TOTAL ITERATIONS
 
 SOLVING FOR HEAD 


     2 CALLS TO PCG ROUTINE FOR TIME STEP   1 IN STRESS PERIOD    1
     8 TOTAL ITERATIONS

 MAXIMUM HEAD CHANGE FOR EACH ITERATION (1 INDICATES THE FIRST INNER ITERATION):

    HEAD CHANGE    HEAD CHANGE    HEAD CHANGE    HEAD CHANGE    HEAD CHANGE 
   LAYER,ROW,COL  LAYER,ROW,COL  LAYER,ROW,COL  LAYER,ROW,COL  LAYER,ROW,COL
 ---------------------------------------------------------------------------
  1  0.1366E-01  0 -0.4205E-02  0 -0.3161E-02  0 -0.1316E-01  0 -0.1236E-01
   ( 15,  1, 86)  ( 17,  1, 89)  (  8,  1, 12)  ( 11,  1, 60)  ( 11,  1, 49)
  0  0.2234E-02  0  0.7393E-03  1 -0.5597E-03
   ( 11,  1, 50)  ( 11,  1, 68)  ( 11,  1, 67)

 MAXIMUM RESIDUAL FOR EACH ITERATION (1 INDICATES THE FIRST INNER ITERATION):

    RESIDUAL       RESIDUAL       RESIDUAL       RESIDUAL       RESIDUAL    
   LAYER,ROW,COL  LAYER,ROW,COL  LAYER,ROW,COL  LAYER,ROW,COL  LAYER,ROW,COL
 ---------------------------------------------------------------------------
  1  0.1370E+06  0 -0.9782E+05  0 -0.9681E+05  0 -0.4566E+05  0   5451.    
   ( 21,  1, 89)  ( 19,  1, 89)  ( 19,  1, 89)  ( 19,  1, 89)  ( 17,  1, 88)
  0   2754.      0   2547.      1   1866.    
   ( 22,  1, 87)  ( 22,  1, 87)  ( 22,  1, 87)


 FLOW MODEL IS TRANSIENT
 FLOW MODEL CONTAINS CONSTANT-HEAD CELLS


 MAXIMUM STEPSIZE DURING WHICH ANY PARTICLE CANNOT MOVE MORE THAN ONE CELL
 =  12.88    (WHEN MIN. R.F.=1)  AT K=  17, I=   1, J=  90

 MAXIMUM STEPSIZE WHICH MEETS STABILITY CRITERION OF THE ADVECTION TERM
 (FOR PURE FINITE-DIFFERENCE OPTION, MIXELM=0) 
 =  8.053    (WHEN MIN. R.F.=1)  AT K=  16, I=   1, J=  90


 TOTAL NUMBER OF POINT SOURCES/SINKS PRESENT IN THE FLOW MODEL =    30

 MAXIMUM STEPSIZE WHICH MEETS STABILITY CRITERION OF THE SINK & SOURCE TERM
 =  12.25    (WHEN MIN. R.F.=1)  AT K=  17, I=   1, J=  91

 MAXIMUM STEPSIZE WHICH MEETS STABILITY CRITERION OF THE DISPERSION TERM
 =  4.035    (WHEN MIN. R.F.=1)  AT K=  17, I=   1, J=  90
     1 CALLS TO GCG PACKAGE FOR TRANSPORT TIME STEP 317 IN FLOW TIME STEP   1 STRESS PERIOD   1
     8 TOTAL ITERATIONS
     1 CALLS TO GCG PACKAGE FOR TRANSPORT TIME STEP 317 IN FLOW TIME STEP   1 STRESS PERIOD   1
     8 TOTAL ITERATIONS
 
 SOLVING FOR HEAD 


     2 CALLS TO PCG ROUTINE FOR TIME STEP   1 IN STRESS PERIOD    1
     9 TOTAL ITERATIONS

 MAXIMUM HEAD CHANGE FOR EACH ITERATION (1 INDICATES THE FIRST INNER ITERATION):

    HEAD CHANGE    HEAD CHANGE    HEAD CHANGE    HEAD CHANGE    HEAD CHANGE 
   LAYER,ROW,COL  LAYER,ROW,COL  LAYER,ROW,COL  LAYER,ROW,COL  LAYER,ROW,COL
 ---------------------------------------------------------------------------
  1 -0.1388E-01  0 -0.1023E-01  0  0.7646E-02  0  0.8485E-02  0 -0.5415E-02
   ( 15,  1, 86)  (  5,  1, 40)  (  8,  1, 12)  (  7,  1, 45)  (  9,  1, 52)
  0  0.4064E-02  0  0.1333E-02  0  0.6542E-03  1 -0.5427E-03
   ( 11,  1, 60)  ( 11,  1, 70)  ( 11,  1, 59)  ( 11,  1, 70)

 MAXIMUM RESIDUAL FOR EACH ITERATION (1 INDICATES THE FIRST INNER ITERATION):

    RESIDUAL       RESIDUAL       RESIDUAL       RESIDUAL       RESIDUAL    
   LAYER,ROW,COL  LAYER,ROW,COL  LAYER,ROW,COL  LAYER,ROW,COL  LAYER,ROW,COL
 ---------------------------------------------------------------------------
  1 -0.1380E+06  0  0.9711E+05  0  0.9718E+05  0  0.8336E+05  0  -6452.    
   ( 21,  1, 89)  ( 19,  1, 89)  ( 19,  1, 89)  ( 19,  1, 89)  ( 17,  1, 88)
  0  -3121.      0  -2579.      0  -960.3      1  -838.5    
   ( 17,  1, 88)  ( 22,  1, 87)  ( 22,  1, 87)  ( 22,  1, 87)


 FLOW MODEL IS TRANSIENT
 FLOW MODEL CONTAINS CONSTANT-HEAD CELLS


 MAXIMUM STEPSIZE DURING WHICH ANY PARTICLE CANNOT MOVE MORE THAN ONE CELL
 =  13.22    (WHEN MIN. R.F.=1)  AT K=  17, I=   1, J=  90

 MAXIMUM STEPSIZE WHICH MEETS STABILITY CRITERION OF THE ADVECTION TERM
 (FOR PURE FINITE-DIFFERENCE OPTION, MIXELM=0) 
 =  7.999    (WHEN MIN. R.F.=1)  AT K=  16, I=   1, J=  90


 TOTAL NUMBER OF POINT SOURCES/SINKS PRESENT IN THE FLOW MODEL =    30

 MAXIMUM STEPSIZE WHICH MEETS STABILITY CRITERION OF THE SINK & SOURCE TERM
 =  12.15    (WHEN MIN. R.F.=1)  AT K=  17, I=   1, J=  91

 MAXIMUM STEPSIZE WHICH MEETS STABILITY CRITERION OF THE DISPERSION TERM
 =  4.378    (WHEN MIN. R.F.=1)  AT K=  17, I=   1, J=  90
     1 CALLS TO GCG PACKAGE FOR TRANSPORT TIME STEP 318 IN FLOW TIME STEP   1 STRESS PERIOD   1
     9 TOTAL ITERATIONS
     1 CALLS TO GCG PACKAGE FOR TRANSPORT TIME STEP 318 IN FLOW TIME STEP   1 STRESS PERIOD   1
     8 TOTAL ITERATIONS
 
 SOLVING FOR HEAD 


     2 CALLS TO PCG ROUTINE FOR TIME STEP   1 IN STRESS PERIOD    1
     9 TOTAL ITERATIONS

 MAXIMUM HEAD CHANGE FOR EACH ITERATION (1 INDICATES THE FIRST INNER ITERATION):

    HEAD CHANGE    HEAD CHANGE    HEAD CHANGE    HEAD CHANGE    HEAD CHANGE 
   LAYER,ROW,COL  LAYER,ROW,COL  LAYER,ROW,COL  LAYER,ROW,COL  LAYER,ROW,COL
 ---------------------------------------------------------------------------
  1  0.1341E-01  0 -0.4079E-02  0 -0.2681E-02  0 -0.6951E-02  0  0.8896E-02
   ( 15,  1, 86)  ( 17,  1, 89)  (  8,  1, 12)  ( 11,  1, 65)  ( 11,  1, 65)
  0  0.2695E-02  0 -0.1101E-02  0 -0.6737E-03  1  0.4161E-03
   ( 11,  1, 57)  ( 11,  1, 55)  ( 11,  1, 38)  ( 11,  1, 55)

 MAXIMUM RESIDUAL FOR EACH ITERATION (1 INDICATES THE FIRST INNER ITERATION):

    RESIDUAL       RESIDUAL       RESIDUAL       RESIDUAL       RESIDUAL    
   LAYER,ROW,COL  LAYER,ROW,COL  LAYER,ROW,COL  LAYER,ROW,COL  LAYER,ROW,COL
 ---------------------------------------------------------------------------
  1  0.1368E+06  0 -0.9744E+05  0 -0.9392E+05  0 -0.1728E+05  0   4515.    
   ( 21,  1, 89)  ( 19,  1, 89)  ( 19,  1, 89)  ( 19,  1, 89)  ( 17,  1, 88)
  0   2745.      0   2325.      0   781.6      1   678.9    
   ( 22,  1, 87)  ( 22,  1, 87)  ( 22,  1, 87)  ( 22,  1, 87)


 FLOW MODEL IS TRANSIENT
 FLOW MODEL CONTAINS CONSTANT-HEAD CELLS


 MAXIMUM STEPSIZE DURING WHICH ANY PARTICLE CANNOT MOVE MORE THAN ONE CELL
 =  12.84    (WHEN MIN. R.F.=1)  AT K=  17, I=   1, J=  90

 MAXIMUM STEPSIZE WHICH MEETS STABILITY CRITERION OF THE ADVECTION TERM
 (FOR PURE FINITE-DIFFERENCE OPTION, MIXELM=0) 
 =  8.035    (WHEN MIN. R.F.=1)  AT K=  16, I=   1, J=  90


 TOTAL NUMBER OF POINT SOURCES/SINKS PRESENT IN THE FLOW MODEL =    30

 MAXIMUM STEPSIZE WHICH MEETS STABILITY CRITERION OF THE SINK & SOURCE TERM
 =  12.19    (WHEN MIN. R.F.=1)  AT K=  17, I=   1, J=  91

 MAXIMUM STEPSIZE WHICH MEETS STABILITY CRITERION OF THE DISPERSION TERM
 =  4.021    (WHEN MIN. R.F.=1)  AT K=  17, I=   1, J=  90
     1 CALLS TO GCG PACKAGE FOR TRANSPORT TIME STEP 319 IN FLOW TIME STEP   1 STRESS PERIOD   1
     8 TOTAL ITERATIONS
     1 CALLS TO GCG PACKAGE FOR TRANSPORT TIME STEP 319 IN FLOW TIME STEP   1 STRESS PERIOD   1
     8 TOTAL ITERATIONS
 
 SOLVING FOR HEAD 


     2 CALLS TO PCG ROUTINE FOR TIME STEP   1 IN STRESS PERIOD    1
     9 TOTAL ITERATIONS

 MAXIMUM HEAD CHANGE FOR EACH ITERATION (1 INDICATES THE FIRST INNER ITERATION):

    HEAD CHANGE    HEAD CHANGE    HEAD CHANGE    HEAD CHANGE    HEAD CHANGE 
   LAYER,ROW,COL  LAYER,ROW,COL  LAYER,ROW,COL  LAYER,ROW,COL  LAYER,ROW,COL
 ---------------------------------------------------------------------------
  1 -0.1341E-01  0  0.3792E-02  0  0.3582E-02  0  0.9137E-02  0 -0.8900E-02
   ( 15,  1, 86)  ( 17,  1, 89)  (  8,  1, 12)  (  6,  1, 44)  (  8,  1, 45)
  0 -0.1962E-02  0  0.1487E-02  0  0.6664E-03  1 -0.7261E-03
   ( 11,  1, 49)  ( 11,  1, 49)  ( 11,  1, 70)  ( 11,  1, 70)

 MAXIMUM RESIDUAL FOR EACH ITERATION (1 INDICATES THE FIRST INNER ITERATION):

    RESIDUAL       RESIDUAL       RESIDUAL       RESIDUAL       RESIDUAL    
   LAYER,ROW,COL  LAYER,ROW,COL  LAYER,ROW,COL  LAYER,ROW,COL  LAYER,ROW,COL
 ---------------------------------------------------------------------------
  1 -0.1331E+06  0  0.9361E+05  0  0.9278E+05  0  0.3759E+05  0   6158.    
   ( 21,  1, 89)  ( 19,  1, 89)  ( 19,  1, 89)  ( 19,  1, 89)  ( 17,  1, 87)
  0  -2814.      0  -2457.      0  -803.1      1  -679.6    
   ( 22,  1, 87)  ( 22,  1, 87)  ( 22,  1, 87)  ( 22,  1, 87)


 FLOW MODEL IS TRANSIENT
 FLOW MODEL CONTAINS CONSTANT-HEAD CELLS


 MAXIMUM STEPSIZE DURING WHICH ANY PARTICLE CANNOT MOVE MORE THAN ONE CELL
 =  13.23    (WHEN MIN. R.F.=1)  AT K=  17, I=   1, J=  90

 MAXIMUM STEPSIZE WHICH MEETS STABILITY CRITERION OF THE ADVECTION TERM
 (FOR PURE FINITE-DIFFERENCE OPTION, MIXELM=0) 
 =  8.007    (WHEN MIN. R.F.=1)  AT K=  16, I=   1, J=  90


 TOTAL NUMBER OF POINT SOURCES/SINKS PRESENT IN THE FLOW MODEL =    30

 MAXIMUM STEPSIZE WHICH MEETS STABILITY CRITERION OF THE SINK & SOURCE TERM
 =  12.18    (WHEN MIN. R.F.=1)  AT K=  17, I=   1, J=  91

 MAXIMUM STEPSIZE WHICH MEETS STABILITY CRITERION OF THE DISPERSION TERM
 =  4.376    (WHEN MIN. R.F.=1)  AT K=  17, I=   1, J=  90
     1 CALLS TO GCG PACKAGE FOR TRANSPORT TIME STEP 320 IN FLOW TIME STEP   1 STRESS PERIOD   1
     9 TOTAL ITERATIONS
  MAXIMUM CONCENTRATION CHANGES FOR EACH ITERATION:
  MAX. CHANGE LAYER,ROW,COL MAX. CHANGE LAYER,ROW,COL MAX. CHANGE LAYER,ROW,COL MAX. CHANGE LAYER,ROW,COL MAX. CHANGE LAYER,ROW,COL
 ------------------------------------------------------------------------------------------------------------------------------------
   0.4920E-01 ( 20,  1, 87)  0.3335E-02 ( 19,  1, 87)  0.2269E-02 ( 18,  1, 87)  0.2196E-03 ( 16,  1, 88)  0.1411E-03 ( 16,  1, 89)
   0.3112E-04 ( 16,  1, 90)  0.1084E-04 ( 21,  1, 78)  0.1493E-04 ( 21,  1, 78)  0.9329E-06 ( 16,  1, 89)
     1 CALLS TO GCG PACKAGE FOR TRANSPORT TIME STEP 320 IN FLOW TIME STEP   1 STRESS PERIOD   1
     8 TOTAL ITERATIONS
  MAXIMUM CONCENTRATION CHANGES FOR EACH ITERATION:
  MAX. CHANGE LAYER,ROW,COL MAX. CHANGE LAYER,ROW,COL MAX. CHANGE LAYER,ROW,COL MAX. CHANGE LAYER,ROW,COL MAX. CHANGE LAYER,ROW,COL
 ------------------------------------------------------------------------------------------------------------------------------------
   0.5709E-01 ( 19,  1, 88)  0.4966E-02 ( 19,  1, 87)  0.2399E-02 ( 18,  1, 87)  0.4586E-03 ( 18,  1, 87)  0.1361E-03 ( 17,  1, 89)
   0.3989E-04 ( 17,  1, 90)  0.6498E-05 ( 17,  1, 90)  0.6372E-06 ( 16,  1, 89)



 >>>>>>>>>>>>>>>>>>>>>>>>>>>>>>>>>>>>>>>>>>>>>>>>>>>>>>>FOR COMPONENT NO. 01<<<<<<<<<<<<<<<<<<<<<<<<<<<<<<<<<<<<<<<<<<<<<<<<<<<<<<<


                                            -------------------------------------------
                                                      TRANSPORT STEP NO.  320
                                            -------------------------------------------

 TOTAL ELAPSED TIME SINCE BEGINNING OF SIMULATION =   16000.00    D   
 .....................................................................

                     CUMMULATIVE MASS BUDGETS AT END OF TRANSPORT STEP  320, TIME STEP    1, STRESS PERIOD    1
                     ------------------------------------------------------------------------------------------

                                                             IN                           OUT
                                                      ----------------             ----------------
                               CONSTANT CONCENTRATION:    0.000000                    0.000000    
                                        CONSTANT HEAD:   0.6333748E+09              -0.6331824E+09
                                                WELLS:    0.000000                    0.000000    
                                             RECHARGE:    0.000000                    0.000000    
                               1ST/0TH ORDER REACTION:    0.000000                    0.000000    
                                MASS STORAGE (SOLUTE):   0.8861331E+08              -0.8880588E+08
                            ---------------------------------------------------------------------------
                                              [TOTAL]:   0.7219888E+09 KG           -0.7219889E+09 KG  

                                                          NET (IN - OUT):   -116.4940    
                                                   DISCREPANCY (PERCENT):  -0.1613515E-04



 >>>>>>>>>>>>>>>>>>>>>>>>>>>>>>>>>>>>>>>>>>>>>>>>>>>>>>>FOR COMPONENT NO. 02<<<<<<<<<<<<<<<<<<<<<<<<<<<<<<<<<<<<<<<<<<<<<<<<<<<<<<<


                                            -------------------------------------------
                                                      TRANSPORT STEP NO.  320
                                            -------------------------------------------

 TOTAL ELAPSED TIME SINCE BEGINNING OF SIMULATION =   16000.00    D   
 .....................................................................

                     CUMMULATIVE MASS BUDGETS AT END OF TRANSPORT STEP  320, TIME STEP    1, STRESS PERIOD    1
                     ------------------------------------------------------------------------------------------

                                                             IN                           OUT
                                                      ----------------             ----------------
                               CONSTANT CONCENTRATION:    0.000000                    0.000000    
                                        CONSTANT HEAD:    0.000000                  -0.7004468E+11
                                                WELLS:    0.000000                    0.000000    
                                             RECHARGE:    0.000000                    0.000000    
                               1ST/0TH ORDER REACTION:   0.2648000E+12                0.000000    
                                MASS STORAGE (SOLUTE):   0.1846170E+11              -0.2132170E+12
                            ---------------------------------------------------------------------------
                                              [TOTAL]:   0.2832620E+12 KG           -0.2832620E+12 KG  

                                                          NET (IN - OUT):   -16307.77    
                                                   DISCREPANCY (PERCENT):  -0.5757131E-05
 
 SOLVING FOR HEAD 


     2 CALLS TO PCG ROUTINE FOR TIME STEP   1 IN STRESS PERIOD    1
     9 TOTAL ITERATIONS

 MAXIMUM HEAD CHANGE FOR EACH ITERATION (1 INDICATES THE FIRST INNER ITERATION):

    HEAD CHANGE    HEAD CHANGE    HEAD CHANGE    HEAD CHANGE    HEAD CHANGE 
   LAYER,ROW,COL  LAYER,ROW,COL  LAYER,ROW,COL  LAYER,ROW,COL  LAYER,ROW,COL
 ---------------------------------------------------------------------------
  1  0.1342E-01  0 -0.3737E-02  0 -0.3611E-02  0 -0.9947E-02  0  0.1227E-01
   ( 15,  1, 86)  ( 17,  1, 89)  (  7,  1, 12)  ( 11,  1, 53)  ( 11,  1, 53)
  0 -0.2023E-02  0 -0.1232E-02  0 -0.5276E-03  1  0.4309E-03
   ( 11,  1, 50)  ( 11,  1, 66)  ( 11,  1, 58)  ( 11,  1, 55)

 MAXIMUM RESIDUAL FOR EACH ITERATION (1 INDICATES THE FIRST INNER ITERATION):

    RESIDUAL       RESIDUAL       RESIDUAL       RESIDUAL       RESIDUAL    
   LAYER,ROW,COL  LAYER,ROW,COL  LAYER,ROW,COL  LAYER,ROW,COL  LAYER,ROW,COL
 ---------------------------------------------------------------------------
  1  0.1321E+06  0 -0.9216E+05  0 -0.8363E+05  0 -0.2673E+05  0  -5370.    
   ( 21,  1, 89)  ( 19,  1, 89)  ( 19,  1, 89)  ( 19,  1, 89)  ( 17,  1, 87)
  0   2883.      0   2498.      0   961.2      1   847.1    
   ( 22,  1, 87)  ( 22,  1, 87)  ( 22,  1, 87)  ( 22,  1, 87)


 FLOW MODEL IS TRANSIENT
 FLOW MODEL CONTAINS CONSTANT-HEAD CELLS


 MAXIMUM STEPSIZE DURING WHICH ANY PARTICLE CANNOT MOVE MORE THAN ONE CELL
 =  12.86    (WHEN MIN. R.F.=1)  AT K=  17, I=   1, J=  90

 MAXIMUM STEPSIZE WHICH MEETS STABILITY CRITERION OF THE ADVECTION TERM
 (FOR PURE FINITE-DIFFERENCE OPTION, MIXELM=0) 
 =  8.036    (WHEN MIN. R.F.=1)  AT K=  16, I=   1, J=  90


 TOTAL NUMBER OF POINT SOURCES/SINKS PRESENT IN THE FLOW MODEL =    30

 MAXIMUM STEPSIZE WHICH MEETS STABILITY CRITERION OF THE SINK & SOURCE TERM
 =  12.21    (WHEN MIN. R.F.=1)  AT K=  17, I=   1, J=  91

 MAXIMUM STEPSIZE WHICH MEETS STABILITY CRITERION OF THE DISPERSION TERM
 =  4.033    (WHEN MIN. R.F.=1)  AT K=  17, I=   1, J=  90
     1 CALLS TO GCG PACKAGE FOR TRANSPORT TIME STEP 321 IN FLOW TIME STEP   1 STRESS PERIOD   1
     8 TOTAL ITERATIONS
     1 CALLS TO GCG PACKAGE FOR TRANSPORT TIME STEP 321 IN FLOW TIME STEP   1 STRESS PERIOD   1
     8 TOTAL ITERATIONS
 
 SOLVING FOR HEAD 


     2 CALLS TO PCG ROUTINE FOR TIME STEP   1 IN STRESS PERIOD    1
     9 TOTAL ITERATIONS

 MAXIMUM HEAD CHANGE FOR EACH ITERATION (1 INDICATES THE FIRST INNER ITERATION):

    HEAD CHANGE    HEAD CHANGE    HEAD CHANGE    HEAD CHANGE    HEAD CHANGE 
   LAYER,ROW,COL  LAYER,ROW,COL  LAYER,ROW,COL  LAYER,ROW,COL  LAYER,ROW,COL
 ---------------------------------------------------------------------------
  1 -0.1344E-01  0  0.3732E-02  0  0.2497E-02  0  0.8937E-02  0 -0.8907E-02
   ( 15,  1, 86)  ( 17,  1, 89)  (  7,  1, 12)  (  9,  1, 46)  (  8,  1, 46)
  0 -0.1627E-02  0  0.1397E-02  0  0.6420E-03  1 -0.9365E-03
   ( 11,  1, 50)  ( 11,  1, 50)  ( 11,  1, 70)  ( 11,  1, 70)

 MAXIMUM RESIDUAL FOR EACH ITERATION (1 INDICATES THE FIRST INNER ITERATION):

    RESIDUAL       RESIDUAL       RESIDUAL       RESIDUAL       RESIDUAL    
   LAYER,ROW,COL  LAYER,ROW,COL  LAYER,ROW,COL  LAYER,ROW,COL  LAYER,ROW,COL
 ---------------------------------------------------------------------------
  1 -0.1345E+06  0  0.9541E+05  0  0.9410E+05  0  0.3704E+05  0   6036.    
   ( 21,  1, 89)  ( 19,  1, 89)  ( 19,  1, 89)  ( 19,  1, 89)  ( 17,  1, 87)
  0  -2812.      0  -2338.      0  -867.3      1  -723.1    
   ( 22,  1, 87)  ( 22,  1, 87)  ( 22,  1, 87)  ( 22,  1, 87)


 FLOW MODEL IS TRANSIENT
 FLOW MODEL CONTAINS CONSTANT-HEAD CELLS


 MAXIMUM STEPSIZE DURING WHICH ANY PARTICLE CANNOT MOVE MORE THAN ONE CELL
 =  13.20    (WHEN MIN. R.F.=1)  AT K=  17, I=   1, J=  90

 MAXIMUM STEPSIZE WHICH MEETS STABILITY CRITERION OF THE ADVECTION TERM
 (FOR PURE FINITE-DIFFERENCE OPTION, MIXELM=0) 
 =  7.999    (WHEN MIN. R.F.=1)  AT K=  16, I=   1, J=  90


 TOTAL NUMBER OF POINT SOURCES/SINKS PRESENT IN THE FLOW MODEL =    30

 MAXIMUM STEPSIZE WHICH MEETS STABILITY CRITERION OF THE SINK & SOURCE TERM
 =  12.16    (WHEN MIN. R.F.=1)  AT K=  17, I=   1, J=  91

 MAXIMUM STEPSIZE WHICH MEETS STABILITY CRITERION OF THE DISPERSION TERM
 =  4.358    (WHEN MIN. R.F.=1)  AT K=  17, I=   1, J=  90
     1 CALLS TO GCG PACKAGE FOR TRANSPORT TIME STEP 322 IN FLOW TIME STEP   1 STRESS PERIOD   1
     9 TOTAL ITERATIONS
     1 CALLS TO GCG PACKAGE FOR TRANSPORT TIME STEP 322 IN FLOW TIME STEP   1 STRESS PERIOD   1
     8 TOTAL ITERATIONS
 
 SOLVING FOR HEAD 


     2 CALLS TO PCG ROUTINE FOR TIME STEP   1 IN STRESS PERIOD    1
     9 TOTAL ITERATIONS

 MAXIMUM HEAD CHANGE FOR EACH ITERATION (1 INDICATES THE FIRST INNER ITERATION):

    HEAD CHANGE    HEAD CHANGE    HEAD CHANGE    HEAD CHANGE    HEAD CHANGE 
   LAYER,ROW,COL  LAYER,ROW,COL  LAYER,ROW,COL  LAYER,ROW,COL  LAYER,ROW,COL
 ---------------------------------------------------------------------------
  1  0.1355E-01  0 -0.3696E-02  0 -0.2328E-02  0 -0.1169E-01  0  0.1237E-01
   ( 15,  1, 86)  ( 17,  1, 89)  (  8,  1, 12)  ( 11,  1, 53)  ( 11,  1, 53)
  0 -0.1886E-02  0 -0.1254E-02  0 -0.5135E-03  1  0.4125E-03
   ( 11,  1, 51)  ( 11,  1, 65)  ( 11,  1, 58)  ( 11,  1, 55)

 MAXIMUM RESIDUAL FOR EACH ITERATION (1 INDICATES THE FIRST INNER ITERATION):

    RESIDUAL       RESIDUAL       RESIDUAL       RESIDUAL       RESIDUAL    
   LAYER,ROW,COL  LAYER,ROW,COL  LAYER,ROW,COL  LAYER,ROW,COL  LAYER,ROW,COL
 ---------------------------------------------------------------------------
  1  0.1319E+06  0 -0.9225E+05  0 -0.9035E+05  0 -0.2728E+05  0  -5323.    
   ( 21,  1, 89)  ( 19,  1, 89)  ( 19,  1, 89)  ( 19,  1, 89)  ( 17,  1, 87)
  0   2884.      0   2425.      0   893.5      1   791.2    
   ( 22,  1, 87)  ( 22,  1, 87)  ( 22,  1, 87)  ( 22,  1, 87)


 FLOW MODEL IS TRANSIENT
 FLOW MODEL CONTAINS CONSTANT-HEAD CELLS


 MAXIMUM STEPSIZE DURING WHICH ANY PARTICLE CANNOT MOVE MORE THAN ONE CELL
 =  12.86    (WHEN MIN. R.F.=1)  AT K=  17, I=   1, J=  90

 MAXIMUM STEPSIZE WHICH MEETS STABILITY CRITERION OF THE ADVECTION TERM
 (FOR PURE FINITE-DIFFERENCE OPTION, MIXELM=0) 
 =  8.033    (WHEN MIN. R.F.=1)  AT K=  16, I=   1, J=  90


 TOTAL NUMBER OF POINT SOURCES/SINKS PRESENT IN THE FLOW MODEL =    30

 MAXIMUM STEPSIZE WHICH MEETS STABILITY CRITERION OF THE SINK & SOURCE TERM
 =  12.20    (WHEN MIN. R.F.=1)  AT K=  17, I=   1, J=  91

 MAXIMUM STEPSIZE WHICH MEETS STABILITY CRITERION OF THE DISPERSION TERM
 =  4.032    (WHEN MIN. R.F.=1)  AT K=  17, I=   1, J=  90
     1 CALLS TO GCG PACKAGE FOR TRANSPORT TIME STEP 323 IN FLOW TIME STEP   1 STRESS PERIOD   1
     8 TOTAL ITERATIONS
     1 CALLS TO GCG PACKAGE FOR TRANSPORT TIME STEP 323 IN FLOW TIME STEP   1 STRESS PERIOD   1
     8 TOTAL ITERATIONS
 
 SOLVING FOR HEAD 


     2 CALLS TO PCG ROUTINE FOR TIME STEP   1 IN STRESS PERIOD    1
     9 TOTAL ITERATIONS

 MAXIMUM HEAD CHANGE FOR EACH ITERATION (1 INDICATES THE FIRST INNER ITERATION):

    HEAD CHANGE    HEAD CHANGE    HEAD CHANGE    HEAD CHANGE    HEAD CHANGE 
   LAYER,ROW,COL  LAYER,ROW,COL  LAYER,ROW,COL  LAYER,ROW,COL  LAYER,ROW,COL
 ---------------------------------------------------------------------------
  1 -0.1340E-01  0  0.3666E-02  0  0.2314E-02  0  0.8376E-02  0 -0.8618E-02
   ( 15,  1, 86)  ( 17,  1, 89)  (  7,  1, 12)  (  7,  1, 46)  (  7,  1, 46)
  0 -0.1490E-02  0  0.1339E-02  0  0.6414E-03  1 -0.9124E-03
   ( 11,  1, 49)  ( 11,  1, 50)  ( 11,  1, 64)  ( 11,  1, 70)

 MAXIMUM RESIDUAL FOR EACH ITERATION (1 INDICATES THE FIRST INNER ITERATION):

    RESIDUAL       RESIDUAL       RESIDUAL       RESIDUAL       RESIDUAL    
   LAYER,ROW,COL  LAYER,ROW,COL  LAYER,ROW,COL  LAYER,ROW,COL  LAYER,ROW,COL
 ---------------------------------------------------------------------------
  1 -0.1325E+06  0  0.9350E+05  0  0.9174E+05  0  0.3468E+05  0   5984.    
   ( 21,  1, 89)  ( 19,  1, 89)  ( 19,  1, 89)  ( 19,  1, 89)  ( 17,  1, 87)
  0  -2847.      0  -2274.      0  -860.1      1  -717.8    
   ( 22,  1, 87)  ( 22,  1, 87)  ( 22,  1, 87)  ( 22,  1, 87)


 FLOW MODEL IS TRANSIENT
 FLOW MODEL CONTAINS CONSTANT-HEAD CELLS


 MAXIMUM STEPSIZE DURING WHICH ANY PARTICLE CANNOT MOVE MORE THAN ONE CELL
 =  13.20    (WHEN MIN. R.F.=1)  AT K=  17, I=   1, J=  90

 MAXIMUM STEPSIZE WHICH MEETS STABILITY CRITERION OF THE ADVECTION TERM
 (FOR PURE FINITE-DIFFERENCE OPTION, MIXELM=0) 
 =  7.998    (WHEN MIN. R.F.=1)  AT K=  16, I=   1, J=  90


 TOTAL NUMBER OF POINT SOURCES/SINKS PRESENT IN THE FLOW MODEL =    30

 MAXIMUM STEPSIZE WHICH MEETS STABILITY CRITERION OF THE SINK & SOURCE TERM
 =  12.16    (WHEN MIN. R.F.=1)  AT K=  17, I=   1, J=  91

 MAXIMUM STEPSIZE WHICH MEETS STABILITY CRITERION OF THE DISPERSION TERM
 =  4.352    (WHEN MIN. R.F.=1)  AT K=  17, I=   1, J=  90
     1 CALLS TO GCG PACKAGE FOR TRANSPORT TIME STEP 324 IN FLOW TIME STEP   1 STRESS PERIOD   1
     9 TOTAL ITERATIONS
     1 CALLS TO GCG PACKAGE FOR TRANSPORT TIME STEP 324 IN FLOW TIME STEP   1 STRESS PERIOD   1
     8 TOTAL ITERATIONS
 
 SOLVING FOR HEAD 


     2 CALLS TO PCG ROUTINE FOR TIME STEP   1 IN STRESS PERIOD    1
     9 TOTAL ITERATIONS

 MAXIMUM HEAD CHANGE FOR EACH ITERATION (1 INDICATES THE FIRST INNER ITERATION):

    HEAD CHANGE    HEAD CHANGE    HEAD CHANGE    HEAD CHANGE    HEAD CHANGE 
   LAYER,ROW,COL  LAYER,ROW,COL  LAYER,ROW,COL  LAYER,ROW,COL  LAYER,ROW,COL
 ---------------------------------------------------------------------------
  1  0.1352E-01  0 -0.3654E-02  0 -0.2320E-02  0 -0.1105E-01  0  0.1199E-01
   ( 15,  1, 86)  ( 17,  1, 89)  (  8,  1, 12)  ( 11,  1, 52)  ( 11,  1, 51)
  0 -0.1813E-02  0 -0.1069E-02  0 -0.6726E-03  1  0.4432E-03
   ( 11,  1, 51)  ( 11,  1, 65)  ( 11,  1, 58)  ( 11,  1, 55)

 MAXIMUM RESIDUAL FOR EACH ITERATION (1 INDICATES THE FIRST INNER ITERATION):

    RESIDUAL       RESIDUAL       RESIDUAL       RESIDUAL       RESIDUAL    
   LAYER,ROW,COL  LAYER,ROW,COL  LAYER,ROW,COL  LAYER,ROW,COL  LAYER,ROW,COL
 ---------------------------------------------------------------------------
  1  0.1313E+06  0 -0.9192E+05  0 -0.9029E+05  0 -0.2681E+05  0  -5261.    
   ( 21,  1, 89)  ( 19,  1, 89)  ( 19,  1, 89)  ( 19,  1, 89)  ( 17,  1, 87)
  0   2876.      0   2388.      0   813.3      1   708.9    
   ( 22,  1, 87)  ( 22,  1, 87)  ( 22,  1, 87)  ( 22,  1, 87)


 FLOW MODEL IS TRANSIENT
 FLOW MODEL CONTAINS CONSTANT-HEAD CELLS


 MAXIMUM STEPSIZE DURING WHICH ANY PARTICLE CANNOT MOVE MORE THAN ONE CELL
 =  12.86    (WHEN MIN. R.F.=1)  AT K=  17, I=   1, J=  90

 MAXIMUM STEPSIZE WHICH MEETS STABILITY CRITERION OF THE ADVECTION TERM
 (FOR PURE FINITE-DIFFERENCE OPTION, MIXELM=0) 
 =  8.033    (WHEN MIN. R.F.=1)  AT K=  16, I=   1, J=  90


 TOTAL NUMBER OF POINT SOURCES/SINKS PRESENT IN THE FLOW MODEL =    30

 MAXIMUM STEPSIZE WHICH MEETS STABILITY CRITERION OF THE SINK & SOURCE TERM
 =  12.20    (WHEN MIN. R.F.=1)  AT K=  17, I=   1, J=  91

 MAXIMUM STEPSIZE WHICH MEETS STABILITY CRITERION OF THE DISPERSION TERM
 =  4.032    (WHEN MIN. R.F.=1)  AT K=  17, I=   1, J=  90
     1 CALLS TO GCG PACKAGE FOR TRANSPORT TIME STEP 325 IN FLOW TIME STEP   1 STRESS PERIOD   1
     8 TOTAL ITERATIONS
  MAXIMUM CONCENTRATION CHANGES FOR EACH ITERATION:
  MAX. CHANGE LAYER,ROW,COL MAX. CHANGE LAYER,ROW,COL MAX. CHANGE LAYER,ROW,COL MAX. CHANGE LAYER,ROW,COL MAX. CHANGE LAYER,ROW,COL
 ------------------------------------------------------------------------------------------------------------------------------------
   0.5257E-01 ( 20,  1, 87)  0.4160E-02 ( 19,  1, 89)  0.2141E-02 ( 18,  1, 86)  0.4658E-03 ( 20,  1, 89)  0.9479E-04 ( 16,  1, 89)
   0.1983E-04 ( 20,  1, 89)  0.1725E-04 ( 16,  1, 90)  0.7520E-06 ( 17,  1, 90)
     1 CALLS TO GCG PACKAGE FOR TRANSPORT TIME STEP 325 IN FLOW TIME STEP   1 STRESS PERIOD   1
     8 TOTAL ITERATIONS
  MAXIMUM CONCENTRATION CHANGES FOR EACH ITERATION:
  MAX. CHANGE LAYER,ROW,COL MAX. CHANGE LAYER,ROW,COL MAX. CHANGE LAYER,ROW,COL MAX. CHANGE LAYER,ROW,COL MAX. CHANGE LAYER,ROW,COL
 ------------------------------------------------------------------------------------------------------------------------------------
   0.6161E-01 ( 20,  1, 87)  0.4587E-02 ( 19,  1, 89)  0.2060E-02 ( 18,  1, 86)  0.6323E-03 ( 19,  1, 89)  0.1195E-03 ( 16,  1, 89)
   0.3078E-04 ( 23,  1, 87)  0.1378E-04 ( 17,  1, 90)  0.9449E-06 ( 17,  1, 90)
 
 SOLVING FOR HEAD 


     2 CALLS TO PCG ROUTINE FOR TIME STEP   1 IN STRESS PERIOD    1
     9 TOTAL ITERATIONS

 MAXIMUM HEAD CHANGE FOR EACH ITERATION (1 INDICATES THE FIRST INNER ITERATION):

    HEAD CHANGE    HEAD CHANGE    HEAD CHANGE    HEAD CHANGE    HEAD CHANGE 
   LAYER,ROW,COL  LAYER,ROW,COL  LAYER,ROW,COL  LAYER,ROW,COL  LAYER,ROW,COL
 ---------------------------------------------------------------------------
  1 -0.1341E-01  0  0.3618E-02  0  0.2340E-02  0  0.8058E-02  0 -0.8439E-02
   ( 15,  1, 86)  ( 17,  1, 89)  (  7,  1, 12)  (  9,  1, 47)  (  6,  1, 46)
  0 -0.1894E-02  0  0.1270E-02  0  0.7610E-03  1 -0.7355E-03
   ( 11,  1, 50)  ( 11,  1, 50)  ( 11,  1, 58)  ( 11,  1, 60)

 MAXIMUM RESIDUAL FOR EACH ITERATION (1 INDICATES THE FIRST INNER ITERATION):

    RESIDUAL       RESIDUAL       RESIDUAL       RESIDUAL       RESIDUAL    
   LAYER,ROW,COL  LAYER,ROW,COL  LAYER,ROW,COL  LAYER,ROW,COL  LAYER,ROW,COL
 ---------------------------------------------------------------------------
  1 -0.1315E+06  0  0.9242E+05  0  0.9020E+05  0  0.3544E+05  0   6001.    
   ( 21,  1, 89)  ( 19,  1, 89)  ( 19,  1, 89)  ( 19,  1, 89)  ( 17,  1, 87)
  0  -2863.      0  -2436.      0  -881.9      1  -750.1    
   ( 22,  1, 87)  ( 22,  1, 87)  ( 22,  1, 87)  ( 22,  1, 87)


 FLOW MODEL IS TRANSIENT
 FLOW MODEL CONTAINS CONSTANT-HEAD CELLS


 MAXIMUM STEPSIZE DURING WHICH ANY PARTICLE CANNOT MOVE MORE THAN ONE CELL
 =  13.20    (WHEN MIN. R.F.=1)  AT K=  17, I=   1, J=  90

 MAXIMUM STEPSIZE WHICH MEETS STABILITY CRITERION OF THE ADVECTION TERM
 (FOR PURE FINITE-DIFFERENCE OPTION, MIXELM=0) 
 =  7.999    (WHEN MIN. R.F.=1)  AT K=  16, I=   1, J=  90


 TOTAL NUMBER OF POINT SOURCES/SINKS PRESENT IN THE FLOW MODEL =    30

 MAXIMUM STEPSIZE WHICH MEETS STABILITY CRITERION OF THE SINK & SOURCE TERM
 =  12.16    (WHEN MIN. R.F.=1)  AT K=  17, I=   1, J=  91

 MAXIMUM STEPSIZE WHICH MEETS STABILITY CRITERION OF THE DISPERSION TERM
 =  4.350    (WHEN MIN. R.F.=1)  AT K=  17, I=   1, J=  90
     1 CALLS TO GCG PACKAGE FOR TRANSPORT TIME STEP 326 IN FLOW TIME STEP   1 STRESS PERIOD   1
     9 TOTAL ITERATIONS
     1 CALLS TO GCG PACKAGE FOR TRANSPORT TIME STEP 326 IN FLOW TIME STEP   1 STRESS PERIOD   1
     8 TOTAL ITERATIONS
 
 SOLVING FOR HEAD 


     2 CALLS TO PCG ROUTINE FOR TIME STEP   1 IN STRESS PERIOD    1
     9 TOTAL ITERATIONS

 MAXIMUM HEAD CHANGE FOR EACH ITERATION (1 INDICATES THE FIRST INNER ITERATION):

    HEAD CHANGE    HEAD CHANGE    HEAD CHANGE    HEAD CHANGE    HEAD CHANGE 
   LAYER,ROW,COL  LAYER,ROW,COL  LAYER,ROW,COL  LAYER,ROW,COL  LAYER,ROW,COL
 ---------------------------------------------------------------------------
  1  0.1350E-01  0 -0.3625E-02  0 -0.2316E-02  0  0.1058E-01  0 -0.1051E-01
   ( 15,  1, 86)  ( 17,  1, 89)  (  8,  1, 12)  ( 11,  1, 60)  ( 11,  1, 60)
  0 -0.2030E-02  0 -0.1207E-02  0 -0.5826E-03  1  0.5222E-03
   ( 11,  1, 50)  ( 11,  1, 65)  ( 11,  1, 51)  ( 11,  1, 55)

 MAXIMUM RESIDUAL FOR EACH ITERATION (1 INDICATES THE FIRST INNER ITERATION):

    RESIDUAL       RESIDUAL       RESIDUAL       RESIDUAL       RESIDUAL    
   LAYER,ROW,COL  LAYER,ROW,COL  LAYER,ROW,COL  LAYER,ROW,COL  LAYER,ROW,COL
 ---------------------------------------------------------------------------
  1  0.1309E+06  0 -0.9168E+05  0 -0.9009E+05  0 -0.2347E+05  0  -4988.    
   ( 21,  1, 89)  ( 19,  1, 89)  ( 19,  1, 89)  ( 19,  1, 89)  ( 17,  1, 87)
  0   2872.      0   2300.      0   828.4      1   724.5    
   ( 22,  1, 87)  ( 22,  1, 87)  ( 22,  1, 87)  ( 22,  1, 87)


 FLOW MODEL IS TRANSIENT
 FLOW MODEL CONTAINS CONSTANT-HEAD CELLS


 MAXIMUM STEPSIZE DURING WHICH ANY PARTICLE CANNOT MOVE MORE THAN ONE CELL
 =  12.86    (WHEN MIN. R.F.=1)  AT K=  17, I=   1, J=  90

 MAXIMUM STEPSIZE WHICH MEETS STABILITY CRITERION OF THE ADVECTION TERM
 (FOR PURE FINITE-DIFFERENCE OPTION, MIXELM=0) 
 =  8.034    (WHEN MIN. R.F.=1)  AT K=  16, I=   1, J=  90


 TOTAL NUMBER OF POINT SOURCES/SINKS PRESENT IN THE FLOW MODEL =    30

 MAXIMUM STEPSIZE WHICH MEETS STABILITY CRITERION OF THE SINK & SOURCE TERM
 =  12.20    (WHEN MIN. R.F.=1)  AT K=  17, I=   1, J=  91

 MAXIMUM STEPSIZE WHICH MEETS STABILITY CRITERION OF THE DISPERSION TERM
 =  4.034    (WHEN MIN. R.F.=1)  AT K=  17, I=   1, J=  90
     1 CALLS TO GCG PACKAGE FOR TRANSPORT TIME STEP 327 IN FLOW TIME STEP   1 STRESS PERIOD   1
     8 TOTAL ITERATIONS
     1 CALLS TO GCG PACKAGE FOR TRANSPORT TIME STEP 327 IN FLOW TIME STEP   1 STRESS PERIOD   1
     8 TOTAL ITERATIONS
 
 SOLVING FOR HEAD 


     2 CALLS TO PCG ROUTINE FOR TIME STEP   1 IN STRESS PERIOD    1
     9 TOTAL ITERATIONS

 MAXIMUM HEAD CHANGE FOR EACH ITERATION (1 INDICATES THE FIRST INNER ITERATION):

    HEAD CHANGE    HEAD CHANGE    HEAD CHANGE    HEAD CHANGE    HEAD CHANGE 
   LAYER,ROW,COL  LAYER,ROW,COL  LAYER,ROW,COL  LAYER,ROW,COL  LAYER,ROW,COL
 ---------------------------------------------------------------------------
  1 -0.1344E-01  0  0.3611E-02  0  0.2327E-02  0  0.8464E-02  0 -0.7992E-02
   ( 15,  1, 86)  ( 17,  1, 89)  (  7,  1, 12)  ( 11,  1, 69)  ( 11,  1, 68)
  0 -0.1546E-02  0  0.1233E-02  0  0.9571E-03  1 -0.7484E-03
   ( 11,  1, 49)  ( 11,  1, 69)  ( 11,  1, 58)  ( 11,  1, 59)

 MAXIMUM RESIDUAL FOR EACH ITERATION (1 INDICATES THE FIRST INNER ITERATION):

    RESIDUAL       RESIDUAL       RESIDUAL       RESIDUAL       RESIDUAL    
   LAYER,ROW,COL  LAYER,ROW,COL  LAYER,ROW,COL  LAYER,ROW,COL  LAYER,ROW,COL
 ---------------------------------------------------------------------------
  1 -0.1312E+06  0  0.9207E+05  0  0.8996E+05  0  0.3491E+05  0   5987.    
   ( 21,  1, 89)  ( 19,  1, 89)  ( 19,  1, 89)  ( 19,  1, 89)  ( 17,  1, 87)
  0  -2876.      0  -2452.      0  -924.9      1  -785.4    
   ( 22,  1, 87)  ( 22,  1, 87)  ( 22,  1, 87)  ( 22,  1, 87)


 FLOW MODEL IS TRANSIENT
 FLOW MODEL CONTAINS CONSTANT-HEAD CELLS


 MAXIMUM STEPSIZE DURING WHICH ANY PARTICLE CANNOT MOVE MORE THAN ONE CELL
 =  13.20    (WHEN MIN. R.F.=1)  AT K=  17, I=   1, J=  90

 MAXIMUM STEPSIZE WHICH MEETS STABILITY CRITERION OF THE ADVECTION TERM
 (FOR PURE FINITE-DIFFERENCE OPTION, MIXELM=0) 
 =  7.999    (WHEN MIN. R.F.=1)  AT K=  16, I=   1, J=  90


 TOTAL NUMBER OF POINT SOURCES/SINKS PRESENT IN THE FLOW MODEL =    30

 MAXIMUM STEPSIZE WHICH MEETS STABILITY CRITERION OF THE SINK & SOURCE TERM
 =  12.16    (WHEN MIN. R.F.=1)  AT K=  17, I=   1, J=  91

 MAXIMUM STEPSIZE WHICH MEETS STABILITY CRITERION OF THE DISPERSION TERM
 =  4.348    (WHEN MIN. R.F.=1)  AT K=  17, I=   1, J=  90
     1 CALLS TO GCG PACKAGE FOR TRANSPORT TIME STEP 328 IN FLOW TIME STEP   1 STRESS PERIOD   1
     9 TOTAL ITERATIONS
     1 CALLS TO GCG PACKAGE FOR TRANSPORT TIME STEP 328 IN FLOW TIME STEP   1 STRESS PERIOD   1
     8 TOTAL ITERATIONS
 
 SOLVING FOR HEAD 


     2 CALLS TO PCG ROUTINE FOR TIME STEP   1 IN STRESS PERIOD    1
     8 TOTAL ITERATIONS

 MAXIMUM HEAD CHANGE FOR EACH ITERATION (1 INDICATES THE FIRST INNER ITERATION):

    HEAD CHANGE    HEAD CHANGE    HEAD CHANGE    HEAD CHANGE    HEAD CHANGE 
   LAYER,ROW,COL  LAYER,ROW,COL  LAYER,ROW,COL  LAYER,ROW,COL  LAYER,ROW,COL
 ---------------------------------------------------------------------------
  1  0.1352E-01  0 -0.3626E-02  0 -0.2336E-02  0  0.1167E-01  0 -0.1150E-01
   ( 15,  1, 86)  ( 17,  1, 89)  (  8,  1, 12)  ( 11,  1, 58)  ( 11,  1, 58)
  0  0.2123E-02  0 -0.9075E-03  1 -0.5150E-03
   ( 11,  1, 55)  ( 11,  1, 65)  ( 11,  1, 59)

 MAXIMUM RESIDUAL FOR EACH ITERATION (1 INDICATES THE FIRST INNER ITERATION):

    RESIDUAL       RESIDUAL       RESIDUAL       RESIDUAL       RESIDUAL    
   LAYER,ROW,COL  LAYER,ROW,COL  LAYER,ROW,COL  LAYER,ROW,COL  LAYER,ROW,COL
 ---------------------------------------------------------------------------
  1  0.1309E+06  0 -0.9175E+05  0 -0.9018E+05  0 -0.2621E+05  0  -5228.    
   ( 21,  1, 89)  ( 19,  1, 89)  ( 19,  1, 89)  ( 19,  1, 89)  ( 17,  1, 87)
  0   2873.      0   2453.      1   2080.    
   ( 22,  1, 87)  ( 22,  1, 87)  ( 22,  1, 87)


 FLOW MODEL IS TRANSIENT
 FLOW MODEL CONTAINS CONSTANT-HEAD CELLS


 MAXIMUM STEPSIZE DURING WHICH ANY PARTICLE CANNOT MOVE MORE THAN ONE CELL
 =  12.85    (WHEN MIN. R.F.=1)  AT K=  17, I=   1, J=  90

 MAXIMUM STEPSIZE WHICH MEETS STABILITY CRITERION OF THE ADVECTION TERM
 (FOR PURE FINITE-DIFFERENCE OPTION, MIXELM=0) 
 =  8.030    (WHEN MIN. R.F.=1)  AT K=  16, I=   1, J=  90


 TOTAL NUMBER OF POINT SOURCES/SINKS PRESENT IN THE FLOW MODEL =    30

 MAXIMUM STEPSIZE WHICH MEETS STABILITY CRITERION OF THE SINK & SOURCE TERM
 =  12.20    (WHEN MIN. R.F.=1)  AT K=  17, I=   1, J=  91

 MAXIMUM STEPSIZE WHICH MEETS STABILITY CRITERION OF THE DISPERSION TERM
 =  4.030    (WHEN MIN. R.F.=1)  AT K=  17, I=   1, J=  90
     1 CALLS TO GCG PACKAGE FOR TRANSPORT TIME STEP 329 IN FLOW TIME STEP   1 STRESS PERIOD   1
     8 TOTAL ITERATIONS
     1 CALLS TO GCG PACKAGE FOR TRANSPORT TIME STEP 329 IN FLOW TIME STEP   1 STRESS PERIOD   1
     8 TOTAL ITERATIONS
 
 SOLVING FOR HEAD 


     2 CALLS TO PCG ROUTINE FOR TIME STEP   1 IN STRESS PERIOD    1
    10 TOTAL ITERATIONS

 MAXIMUM HEAD CHANGE FOR EACH ITERATION (1 INDICATES THE FIRST INNER ITERATION):

    HEAD CHANGE    HEAD CHANGE    HEAD CHANGE    HEAD CHANGE    HEAD CHANGE 
   LAYER,ROW,COL  LAYER,ROW,COL  LAYER,ROW,COL  LAYER,ROW,COL  LAYER,ROW,COL
 ---------------------------------------------------------------------------
  1 -0.1375E-01  0 -0.4502E-02  0  0.4233E-02  0 -0.9919E-02  0  0.8168E-02
   ( 15,  1, 86)  ( 11,  1, 37)  (  8,  1, 12)  (  6,  1, 41)  (  7,  1, 43)
  0 -0.3946E-02  0  0.1585E-02  0  0.1042E-02  0 -0.6705E-03  1 -0.2713E-03
   ( 11,  1, 60)  ( 11,  1, 60)  ( 11,  1, 50)  ( 11,  1, 50)  ( 11,  1, 66)

 MAXIMUM RESIDUAL FOR EACH ITERATION (1 INDICATES THE FIRST INNER ITERATION):

    RESIDUAL       RESIDUAL       RESIDUAL       RESIDUAL       RESIDUAL    
   LAYER,ROW,COL  LAYER,ROW,COL  LAYER,ROW,COL  LAYER,ROW,COL  LAYER,ROW,COL
 ---------------------------------------------------------------------------
  1 -0.1332E+06  0  0.9404E+05  0  0.9332E+05  0  0.6472E+05  0   6078.    
   ( 21,  1, 89)  ( 19,  1, 89)  ( 19,  1, 89)  ( 19,  1, 89)  ( 17,  1, 87)
  0  -2786.      0  -2632.      0  -1562.      0  -374.6      1  -322.2    
   ( 17,  1, 88)  ( 22,  1, 87)  ( 22,  1, 87)  ( 22,  1, 87)  ( 22,  1, 87)


 FLOW MODEL IS TRANSIENT
 FLOW MODEL CONTAINS CONSTANT-HEAD CELLS


 MAXIMUM STEPSIZE DURING WHICH ANY PARTICLE CANNOT MOVE MORE THAN ONE CELL
 =  13.15    (WHEN MIN. R.F.=1)  AT K=  17, I=   1, J=  90

 MAXIMUM STEPSIZE WHICH MEETS STABILITY CRITERION OF THE ADVECTION TERM
 (FOR PURE FINITE-DIFFERENCE OPTION, MIXELM=0) 
 =  7.975    (WHEN MIN. R.F.=1)  AT K=  16, I=   1, J=  90


 TOTAL NUMBER OF POINT SOURCES/SINKS PRESENT IN THE FLOW MODEL =    30

 MAXIMUM STEPSIZE WHICH MEETS STABILITY CRITERION OF THE SINK & SOURCE TERM
 =  12.09    (WHEN MIN. R.F.=1)  AT K=  17, I=   1, J=  91

 MAXIMUM STEPSIZE WHICH MEETS STABILITY CRITERION OF THE DISPERSION TERM
 =  4.330    (WHEN MIN. R.F.=1)  AT K=  17, I=   1, J=  90
     1 CALLS TO GCG PACKAGE FOR TRANSPORT TIME STEP 330 IN FLOW TIME STEP   1 STRESS PERIOD   1
     9 TOTAL ITERATIONS
  MAXIMUM CONCENTRATION CHANGES FOR EACH ITERATION:
  MAX. CHANGE LAYER,ROW,COL MAX. CHANGE LAYER,ROW,COL MAX. CHANGE LAYER,ROW,COL MAX. CHANGE LAYER,ROW,COL MAX. CHANGE LAYER,ROW,COL
 ------------------------------------------------------------------------------------------------------------------------------------
   0.4921E-01 ( 20,  1, 87)  0.3286E-02 ( 19,  1, 87)  0.2173E-02 ( 18,  1, 87)  0.2127E-03 ( 16,  1, 88)  0.1402E-03 ( 16,  1, 89)
   0.2871E-04 ( 16,  1, 90)  0.2150E-05 ( 21,  1, 78)  0.2679E-05 ( 21,  1, 78)  0.7316E-06 ( 16,  1, 89)
     1 CALLS TO GCG PACKAGE FOR TRANSPORT TIME STEP 330 IN FLOW TIME STEP   1 STRESS PERIOD   1
     8 TOTAL ITERATIONS
  MAXIMUM CONCENTRATION CHANGES FOR EACH ITERATION:
  MAX. CHANGE LAYER,ROW,COL MAX. CHANGE LAYER,ROW,COL MAX. CHANGE LAYER,ROW,COL MAX. CHANGE LAYER,ROW,COL MAX. CHANGE LAYER,ROW,COL
 ------------------------------------------------------------------------------------------------------------------------------------
   0.5701E-01 ( 20,  1, 87)  0.4812E-02 ( 19,  1, 87)  0.2290E-02 ( 18,  1, 87)  0.4285E-03 ( 18,  1, 87)  0.1402E-03 ( 17,  1, 89)
   0.3810E-04 ( 17,  1, 90)  0.6049E-05 ( 17,  1, 90)  0.5626E-06 ( 16,  1, 89)



 >>>>>>>>>>>>>>>>>>>>>>>>>>>>>>>>>>>>>>>>>>>>>>>>>>>>>>>FOR COMPONENT NO. 01<<<<<<<<<<<<<<<<<<<<<<<<<<<<<<<<<<<<<<<<<<<<<<<<<<<<<<<


                                            -------------------------------------------
                                                      TRANSPORT STEP NO.  330
                                            -------------------------------------------

 TOTAL ELAPSED TIME SINCE BEGINNING OF SIMULATION =   16500.00    D   
 .....................................................................

                     CUMMULATIVE MASS BUDGETS AT END OF TRANSPORT STEP  330, TIME STEP    1, STRESS PERIOD    1
                     ------------------------------------------------------------------------------------------

                                                             IN                           OUT
                                                      ----------------             ----------------
                               CONSTANT CONCENTRATION:    0.000000                    0.000000    
                                        CONSTANT HEAD:   0.6531653E+09              -0.6529696E+09
                                                WELLS:    0.000000                    0.000000    
                                             RECHARGE:    0.000000                    0.000000    
                               1ST/0TH ORDER REACTION:    0.000000                    0.000000    
                                MASS STORAGE (SOLUTE):   0.9136423E+08              -0.9156010E+08
                            ---------------------------------------------------------------------------
                                              [TOTAL]:   0.7445302E+09 KG           -0.7445304E+09 KG  

                                                          NET (IN - OUT):   -108.7816    
                                                   DISCREPANCY (PERCENT):  -0.1461076E-04



 >>>>>>>>>>>>>>>>>>>>>>>>>>>>>>>>>>>>>>>>>>>>>>>>>>>>>>>FOR COMPONENT NO. 02<<<<<<<<<<<<<<<<<<<<<<<<<<<<<<<<<<<<<<<<<<<<<<<<<<<<<<<


                                            -------------------------------------------
                                                      TRANSPORT STEP NO.  330
                                            -------------------------------------------

 TOTAL ELAPSED TIME SINCE BEGINNING OF SIMULATION =   16500.00    D   
 .....................................................................

                     CUMMULATIVE MASS BUDGETS AT END OF TRANSPORT STEP  330, TIME STEP    1, STRESS PERIOD    1
                     ------------------------------------------------------------------------------------------

                                                             IN                           OUT
                                                      ----------------             ----------------
                               CONSTANT CONCENTRATION:    0.000000                    0.000000    
                                        CONSTANT HEAD:    0.000000                  -0.7384446E+11
                                                WELLS:    0.000000                    0.000000    
                                             RECHARGE:    0.000000                    0.000000    
                               1ST/0TH ORDER REACTION:   0.2730750E+12                0.000000    
                                MASS STORAGE (SOLUTE):   0.1971141E+11              -0.2189420E+12
                            ---------------------------------------------------------------------------
                                              [TOTAL]:   0.2927867E+12 KG           -0.2927868E+12 KG  

                                                          NET (IN - OUT):   -18040.51    
                                                   DISCREPANCY (PERCENT):  -0.6161655E-05
 
 SOLVING FOR HEAD 


     2 CALLS TO PCG ROUTINE FOR TIME STEP   1 IN STRESS PERIOD    1
     9 TOTAL ITERATIONS

 MAXIMUM HEAD CHANGE FOR EACH ITERATION (1 INDICATES THE FIRST INNER ITERATION):

    HEAD CHANGE    HEAD CHANGE    HEAD CHANGE    HEAD CHANGE    HEAD CHANGE 
   LAYER,ROW,COL  LAYER,ROW,COL  LAYER,ROW,COL  LAYER,ROW,COL  LAYER,ROW,COL
 ---------------------------------------------------------------------------
  1  0.1353E-01  0 -0.3868E-02  0 -0.2566E-02  0 -0.5741E-02  0  0.7591E-02
   ( 15,  1, 86)  ( 17,  1, 89)  (  8,  1, 12)  ( 11,  1, 52)  ( 11,  1, 52)
  0 -0.2261E-02  0 -0.1280E-02  0 -0.7123E-03  1  0.4711E-03
   ( 11,  1, 54)  ( 11,  1, 70)  ( 11,  1, 65)  ( 11,  1, 65)

 MAXIMUM RESIDUAL FOR EACH ITERATION (1 INDICATES THE FIRST INNER ITERATION):

    RESIDUAL       RESIDUAL       RESIDUAL       RESIDUAL       RESIDUAL    
   LAYER,ROW,COL  LAYER,ROW,COL  LAYER,ROW,COL  LAYER,ROW,COL  LAYER,ROW,COL
 ---------------------------------------------------------------------------
  1  0.1327E+06  0 -0.9407E+05  0 -0.9287E+05  0 -0.1597E+05  0   4523.    
   ( 21,  1, 89)  ( 19,  1, 89)  ( 19,  1, 89)  ( 19,  1, 89)  ( 17,  1, 88)
  0   2786.      0   1860.      0   617.6      1   530.0    
   ( 22,  1, 87)  ( 22,  1, 87)  ( 22,  1, 87)  ( 22,  1, 87)


 FLOW MODEL IS TRANSIENT
 FLOW MODEL CONTAINS CONSTANT-HEAD CELLS


 MAXIMUM STEPSIZE DURING WHICH ANY PARTICLE CANNOT MOVE MORE THAN ONE CELL
 =  12.83    (WHEN MIN. R.F.=1)  AT K=  17, I=   1, J=  90

 MAXIMUM STEPSIZE WHICH MEETS STABILITY CRITERION OF THE ADVECTION TERM
 (FOR PURE FINITE-DIFFERENCE OPTION, MIXELM=0) 
 =  8.023    (WHEN MIN. R.F.=1)  AT K=  16, I=   1, J=  90


 TOTAL NUMBER OF POINT SOURCES/SINKS PRESENT IN THE FLOW MODEL =    30

 MAXIMUM STEPSIZE WHICH MEETS STABILITY CRITERION OF THE SINK & SOURCE TERM
 =  12.17    (WHEN MIN. R.F.=1)  AT K=  17, I=   1, J=  91

 MAXIMUM STEPSIZE WHICH MEETS STABILITY CRITERION OF THE DISPERSION TERM
 =  4.018    (WHEN MIN. R.F.=1)  AT K=  17, I=   1, J=  90
     1 CALLS TO GCG PACKAGE FOR TRANSPORT TIME STEP 331 IN FLOW TIME STEP   1 STRESS PERIOD   1
     8 TOTAL ITERATIONS
     1 CALLS TO GCG PACKAGE FOR TRANSPORT TIME STEP 331 IN FLOW TIME STEP   1 STRESS PERIOD   1
     8 TOTAL ITERATIONS
 
 SOLVING FOR HEAD 


     2 CALLS TO PCG ROUTINE FOR TIME STEP   1 IN STRESS PERIOD    1
     9 TOTAL ITERATIONS

 MAXIMUM HEAD CHANGE FOR EACH ITERATION (1 INDICATES THE FIRST INNER ITERATION):

    HEAD CHANGE    HEAD CHANGE    HEAD CHANGE    HEAD CHANGE    HEAD CHANGE 
   LAYER,ROW,COL  LAYER,ROW,COL  LAYER,ROW,COL  LAYER,ROW,COL  LAYER,ROW,COL
 ---------------------------------------------------------------------------
  1 -0.1329E-01  0  0.3484E-02  0  0.2366E-02  0 -0.7675E-02  0  0.7599E-02
   ( 15,  1, 86)  ( 17,  1, 89)  (  8,  1, 12)  (  5,  1, 42)  (  9,  1, 45)
  0 -0.1643E-02  0  0.1313E-02  0  0.7941E-03  1 -0.8700E-03
   ( 11,  1, 70)  ( 11,  1, 59)  ( 11,  1, 70)  ( 11,  1, 70)

 MAXIMUM RESIDUAL FOR EACH ITERATION (1 INDICATES THE FIRST INNER ITERATION):

    RESIDUAL       RESIDUAL       RESIDUAL       RESIDUAL       RESIDUAL    
   LAYER,ROW,COL  LAYER,ROW,COL  LAYER,ROW,COL  LAYER,ROW,COL  LAYER,ROW,COL
 ---------------------------------------------------------------------------
  1 -0.1279E+06  0  0.8863E+05  0  0.8667E+05  0  0.3061E+05  0   6130.    
   ( 21,  1, 89)  ( 19,  1, 89)  ( 19,  1, 89)  ( 19,  1, 89)  ( 17,  1, 87)
  0  -2875.      0  -2457.      0  -846.3      1  -720.9    
   ( 22,  1, 87)  ( 22,  1, 87)  ( 22,  1, 87)  ( 22,  1, 87)


 FLOW MODEL IS TRANSIENT
 FLOW MODEL CONTAINS CONSTANT-HEAD CELLS


 MAXIMUM STEPSIZE DURING WHICH ANY PARTICLE CANNOT MOVE MORE THAN ONE CELL
 =  13.21    (WHEN MIN. R.F.=1)  AT K=  17, I=   1, J=  90

 MAXIMUM STEPSIZE WHICH MEETS STABILITY CRITERION OF THE ADVECTION TERM
 (FOR PURE FINITE-DIFFERENCE OPTION, MIXELM=0) 
 =  8.001    (WHEN MIN. R.F.=1)  AT K=  16, I=   1, J=  90


 TOTAL NUMBER OF POINT SOURCES/SINKS PRESENT IN THE FLOW MODEL =    30

 MAXIMUM STEPSIZE WHICH MEETS STABILITY CRITERION OF THE SINK & SOURCE TERM
 =  12.17    (WHEN MIN. R.F.=1)  AT K=  17, I=   1, J=  91

 MAXIMUM STEPSIZE WHICH MEETS STABILITY CRITERION OF THE DISPERSION TERM
 =  4.354    (WHEN MIN. R.F.=1)  AT K=  17, I=   1, J=  90
     1 CALLS TO GCG PACKAGE FOR TRANSPORT TIME STEP 332 IN FLOW TIME STEP   1 STRESS PERIOD   1
     9 TOTAL ITERATIONS
     1 CALLS TO GCG PACKAGE FOR TRANSPORT TIME STEP 332 IN FLOW TIME STEP   1 STRESS PERIOD   1
     8 TOTAL ITERATIONS
 
 SOLVING FOR HEAD 


     2 CALLS TO PCG ROUTINE FOR TIME STEP   1 IN STRESS PERIOD    1
     8 TOTAL ITERATIONS

 MAXIMUM HEAD CHANGE FOR EACH ITERATION (1 INDICATES THE FIRST INNER ITERATION):

    HEAD CHANGE    HEAD CHANGE    HEAD CHANGE    HEAD CHANGE    HEAD CHANGE 
   LAYER,ROW,COL  LAYER,ROW,COL  LAYER,ROW,COL  LAYER,ROW,COL  LAYER,ROW,COL
 ---------------------------------------------------------------------------
  1  0.1346E-01  0 -0.3625E-02  0 -0.2299E-02  0  0.1087E-01  0 -0.1127E-01
   ( 15,  1, 86)  ( 17,  1, 89)  (  8,  1, 12)  ( 11,  1, 49)  ( 11,  1, 49)
  0 -0.1792E-02  0 -0.6830E-03  1 -0.4493E-03
   ( 11,  1, 60)  ( 11,  1, 54)  ( 11,  1, 69)

 MAXIMUM RESIDUAL FOR EACH ITERATION (1 INDICATES THE FIRST INNER ITERATION):

    RESIDUAL       RESIDUAL       RESIDUAL       RESIDUAL       RESIDUAL    
   LAYER,ROW,COL  LAYER,ROW,COL  LAYER,ROW,COL  LAYER,ROW,COL  LAYER,ROW,COL
 ---------------------------------------------------------------------------
  1  0.1294E+06  0 -0.9014E+05  0 -0.8855E+05  0 -0.2183E+05  0  -4945.    
   ( 21,  1, 89)  ( 19,  1, 89)  ( 19,  1, 89)  ( 19,  1, 89)  ( 17,  1, 87)
  0   2883.      0   2514.      1   2137.    
   ( 22,  1, 87)  ( 22,  1, 87)  ( 22,  1, 87)


 FLOW MODEL IS TRANSIENT
 FLOW MODEL CONTAINS CONSTANT-HEAD CELLS


 MAXIMUM STEPSIZE DURING WHICH ANY PARTICLE CANNOT MOVE MORE THAN ONE CELL
 =  12.86    (WHEN MIN. R.F.=1)  AT K=  17, I=   1, J=  90

 MAXIMUM STEPSIZE WHICH MEETS STABILITY CRITERION OF THE ADVECTION TERM
 (FOR PURE FINITE-DIFFERENCE OPTION, MIXELM=0) 
 =  8.030    (WHEN MIN. R.F.=1)  AT K=  16, I=   1, J=  90


 TOTAL NUMBER OF POINT SOURCES/SINKS PRESENT IN THE FLOW MODEL =    30

 MAXIMUM STEPSIZE WHICH MEETS STABILITY CRITERION OF THE SINK & SOURCE TERM
 =  12.21    (WHEN MIN. R.F.=1)  AT K=  17, I=   1, J=  91

 MAXIMUM STEPSIZE WHICH MEETS STABILITY CRITERION OF THE DISPERSION TERM
 =  4.034    (WHEN MIN. R.F.=1)  AT K=  17, I=   1, J=  90
     1 CALLS TO GCG PACKAGE FOR TRANSPORT TIME STEP 333 IN FLOW TIME STEP   1 STRESS PERIOD   1
     8 TOTAL ITERATIONS
     1 CALLS TO GCG PACKAGE FOR TRANSPORT TIME STEP 333 IN FLOW TIME STEP   1 STRESS PERIOD   1
     8 TOTAL ITERATIONS
 
 SOLVING FOR HEAD 


     2 CALLS TO PCG ROUTINE FOR TIME STEP   1 IN STRESS PERIOD    1
     9 TOTAL ITERATIONS

 MAXIMUM HEAD CHANGE FOR EACH ITERATION (1 INDICATES THE FIRST INNER ITERATION):

    HEAD CHANGE    HEAD CHANGE    HEAD CHANGE    HEAD CHANGE    HEAD CHANGE 
   LAYER,ROW,COL  LAYER,ROW,COL  LAYER,ROW,COL  LAYER,ROW,COL  LAYER,ROW,COL
 ---------------------------------------------------------------------------
  1 -0.1376E-01  0 -0.6299E-02  0  0.3782E-02  0  0.8775E-02  0 -0.6664E-02
   ( 15,  1, 86)  (  5,  1, 44)  (  7,  1, 12)  (  7,  1, 46)  ( 10,  1, 51)
  0 -0.2818E-02  0  0.1271E-02  0  0.9673E-03  1 -0.7460E-03
   ( 11,  1, 49)  ( 11,  1, 49)  ( 11,  1, 59)  ( 11,  1, 59)

 MAXIMUM RESIDUAL FOR EACH ITERATION (1 INDICATES THE FIRST INNER ITERATION):

    RESIDUAL       RESIDUAL       RESIDUAL       RESIDUAL       RESIDUAL    
   LAYER,ROW,COL  LAYER,ROW,COL  LAYER,ROW,COL  LAYER,ROW,COL  LAYER,ROW,COL
 ---------------------------------------------------------------------------
  1 -0.1340E+06  0  0.9508E+05  0  0.9425E+05  0  0.7297E+05  0   5992.    
   ( 21,  1, 89)  ( 19,  1, 89)  ( 19,  1, 89)  ( 19,  1, 89)  ( 17,  1, 87)
  0  -2806.      0  -2593.      0  -1115.      1  -978.8    
   ( 22,  1, 87)  ( 22,  1, 87)  ( 22,  1, 87)  ( 22,  1, 87)


 FLOW MODEL IS TRANSIENT
 FLOW MODEL CONTAINS CONSTANT-HEAD CELLS


 MAXIMUM STEPSIZE DURING WHICH ANY PARTICLE CANNOT MOVE MORE THAN ONE CELL
 =  13.15    (WHEN MIN. R.F.=1)  AT K=  17, I=   1, J=  90

 MAXIMUM STEPSIZE WHICH MEETS STABILITY CRITERION OF THE ADVECTION TERM
 (FOR PURE FINITE-DIFFERENCE OPTION, MIXELM=0) 
 =  7.975    (WHEN MIN. R.F.=1)  AT K=  16, I=   1, J=  90


 TOTAL NUMBER OF POINT SOURCES/SINKS PRESENT IN THE FLOW MODEL =    30

 MAXIMUM STEPSIZE WHICH MEETS STABILITY CRITERION OF THE SINK & SOURCE TERM
 =  12.09    (WHEN MIN. R.F.=1)  AT K=  17, I=   1, J=  91

 MAXIMUM STEPSIZE WHICH MEETS STABILITY CRITERION OF THE DISPERSION TERM
 =  4.331    (WHEN MIN. R.F.=1)  AT K=  17, I=   1, J=  90
     1 CALLS TO GCG PACKAGE FOR TRANSPORT TIME STEP 334 IN FLOW TIME STEP   1 STRESS PERIOD   1
     9 TOTAL ITERATIONS
     1 CALLS TO GCG PACKAGE FOR TRANSPORT TIME STEP 334 IN FLOW TIME STEP   1 STRESS PERIOD   1
     8 TOTAL ITERATIONS
 
 SOLVING FOR HEAD 


     2 CALLS TO PCG ROUTINE FOR TIME STEP   1 IN STRESS PERIOD    1
     9 TOTAL ITERATIONS

 MAXIMUM HEAD CHANGE FOR EACH ITERATION (1 INDICATES THE FIRST INNER ITERATION):

    HEAD CHANGE    HEAD CHANGE    HEAD CHANGE    HEAD CHANGE    HEAD CHANGE 
   LAYER,ROW,COL  LAYER,ROW,COL  LAYER,ROW,COL  LAYER,ROW,COL  LAYER,ROW,COL
 ---------------------------------------------------------------------------
  1  0.1368E-01  0 -0.4027E-02  0 -0.3056E-02  0  0.1089E-01  0 -0.1184E-01
   ( 15,  1, 86)  ( 17,  1, 89)  (  8,  1, 12)  ( 11,  1, 59)  ( 11,  1, 59)
  0  0.2383E-02  0 -0.1169E-02  0 -0.5511E-03  1  0.4719E-03
   ( 11,  1, 57)  ( 11,  1, 54)  ( 11,  1, 60)  ( 11,  1, 64)

 MAXIMUM RESIDUAL FOR EACH ITERATION (1 INDICATES THE FIRST INNER ITERATION):

    RESIDUAL       RESIDUAL       RESIDUAL       RESIDUAL       RESIDUAL    
   LAYER,ROW,COL  LAYER,ROW,COL  LAYER,ROW,COL  LAYER,ROW,COL  LAYER,ROW,COL
 ---------------------------------------------------------------------------
  1  0.1332E+06  0 -0.9485E+05  0 -0.9388E+05  0 -0.1870E+05  0   4677.    
   ( 21,  1, 89)  ( 19,  1, 89)  ( 19,  1, 89)  ( 19,  1, 89)  ( 17,  1, 88)
  0   2774.      0   2256.      0   708.7      1   615.9    
   ( 22,  1, 87)  ( 22,  1, 87)  ( 22,  1, 87)  ( 22,  1, 87)


 FLOW MODEL IS TRANSIENT
 FLOW MODEL CONTAINS CONSTANT-HEAD CELLS


 MAXIMUM STEPSIZE DURING WHICH ANY PARTICLE CANNOT MOVE MORE THAN ONE CELL
 =  12.85    (WHEN MIN. R.F.=1)  AT K=  17, I=   1, J=  90

 MAXIMUM STEPSIZE WHICH MEETS STABILITY CRITERION OF THE ADVECTION TERM
 (FOR PURE FINITE-DIFFERENCE OPTION, MIXELM=0) 
 =  8.030    (WHEN MIN. R.F.=1)  AT K=  16, I=   1, J=  90


 TOTAL NUMBER OF POINT SOURCES/SINKS PRESENT IN THE FLOW MODEL =    30

 MAXIMUM STEPSIZE WHICH MEETS STABILITY CRITERION OF THE SINK & SOURCE TERM
 =  12.18    (WHEN MIN. R.F.=1)  AT K=  17, I=   1, J=  91

 MAXIMUM STEPSIZE WHICH MEETS STABILITY CRITERION OF THE DISPERSION TERM
 =  4.023    (WHEN MIN. R.F.=1)  AT K=  17, I=   1, J=  90
     1 CALLS TO GCG PACKAGE FOR TRANSPORT TIME STEP 335 IN FLOW TIME STEP   1 STRESS PERIOD   1
     8 TOTAL ITERATIONS
  MAXIMUM CONCENTRATION CHANGES FOR EACH ITERATION:
  MAX. CHANGE LAYER,ROW,COL MAX. CHANGE LAYER,ROW,COL MAX. CHANGE LAYER,ROW,COL MAX. CHANGE LAYER,ROW,COL MAX. CHANGE LAYER,ROW,COL
 ------------------------------------------------------------------------------------------------------------------------------------
   0.5274E-01 ( 20,  1, 87)  0.4242E-02 ( 19,  1, 89)  0.2093E-02 ( 18,  1, 86)  0.4525E-03 ( 20,  1, 89)  0.9228E-04 ( 16,  1, 89)
   0.2058E-04 ( 20,  1, 89)  0.1843E-04 ( 16,  1, 90)  0.7399E-06 ( 17,  1, 90)
     1 CALLS TO GCG PACKAGE FOR TRANSPORT TIME STEP 335 IN FLOW TIME STEP   1 STRESS PERIOD   1
     8 TOTAL ITERATIONS
  MAXIMUM CONCENTRATION CHANGES FOR EACH ITERATION:
  MAX. CHANGE LAYER,ROW,COL MAX. CHANGE LAYER,ROW,COL MAX. CHANGE LAYER,ROW,COL MAX. CHANGE LAYER,ROW,COL MAX. CHANGE LAYER,ROW,COL
 ------------------------------------------------------------------------------------------------------------------------------------
   0.6163E-01 ( 20,  1, 87)  0.4760E-02 ( 19,  1, 89)  0.2000E-02 ( 18,  1, 86)  0.6269E-03 ( 19,  1, 89)  0.1256E-03 ( 16,  1, 89)
   0.3380E-04 ( 23,  1, 87)  0.1523E-04 ( 17,  1, 90)  0.9265E-06 ( 17,  1, 90)
 
 SOLVING FOR HEAD 


     2 CALLS TO PCG ROUTINE FOR TIME STEP   1 IN STRESS PERIOD    1
     8 TOTAL ITERATIONS

 MAXIMUM HEAD CHANGE FOR EACH ITERATION (1 INDICATES THE FIRST INNER ITERATION):

    HEAD CHANGE    HEAD CHANGE    HEAD CHANGE    HEAD CHANGE    HEAD CHANGE 
   LAYER,ROW,COL  LAYER,ROW,COL  LAYER,ROW,COL  LAYER,ROW,COL  LAYER,ROW,COL
 ---------------------------------------------------------------------------
  1 -0.1334E-01  0  0.3632E-02  0  0.2393E-02  0  0.1227E-01  0 -0.1228E-01
   ( 15,  1, 86)  ( 17,  1, 89)  (  8,  1, 12)  ( 11,  1, 50)  ( 11,  1, 50)
  0 -0.1643E-02  0  0.7071E-03  1  0.5041E-03
   ( 11,  1, 70)  (  9,  1, 42)  ( 11,  1, 35)

 MAXIMUM RESIDUAL FOR EACH ITERATION (1 INDICATES THE FIRST INNER ITERATION):

    RESIDUAL       RESIDUAL       RESIDUAL       RESIDUAL       RESIDUAL    
   LAYER,ROW,COL  LAYER,ROW,COL  LAYER,ROW,COL  LAYER,ROW,COL  LAYER,ROW,COL
 ---------------------------------------------------------------------------
  1 -0.1290E+06  0  0.9005E+05  0  0.8870E+05  0  0.2885E+05  0   5846.    
   ( 21,  1, 89)  ( 19,  1, 89)  ( 19,  1, 89)  ( 19,  1, 89)  ( 17,  1, 87)
  0  -2869.      0  -2591.      1  -2036.    
   ( 22,  1, 87)  ( 22,  1, 87)  ( 22,  1, 87)


 FLOW MODEL IS TRANSIENT
 FLOW MODEL CONTAINS CONSTANT-HEAD CELLS


 MAXIMUM STEPSIZE DURING WHICH ANY PARTICLE CANNOT MOVE MORE THAN ONE CELL
 =  13.23    (WHEN MIN. R.F.=1)  AT K=  17, I=   1, J=  90

 MAXIMUM STEPSIZE WHICH MEETS STABILITY CRITERION OF THE ADVECTION TERM
 (FOR PURE FINITE-DIFFERENCE OPTION, MIXELM=0) 
 =  8.010    (WHEN MIN. R.F.=1)  AT K=  16, I=   1, J=  90


 TOTAL NUMBER OF POINT SOURCES/SINKS PRESENT IN THE FLOW MODEL =    30

 MAXIMUM STEPSIZE WHICH MEETS STABILITY CRITERION OF THE SINK & SOURCE TERM
 =  12.18    (WHEN MIN. R.F.=1)  AT K=  17, I=   1, J=  91

 MAXIMUM STEPSIZE WHICH MEETS STABILITY CRITERION OF THE DISPERSION TERM
 =  4.368    (WHEN MIN. R.F.=1)  AT K=  17, I=   1, J=  90
     1 CALLS TO GCG PACKAGE FOR TRANSPORT TIME STEP 336 IN FLOW TIME STEP   1 STRESS PERIOD   1
    10 TOTAL ITERATIONS
     1 CALLS TO GCG PACKAGE FOR TRANSPORT TIME STEP 336 IN FLOW TIME STEP   1 STRESS PERIOD   1
     8 TOTAL ITERATIONS
 
 SOLVING FOR HEAD 


     2 CALLS TO PCG ROUTINE FOR TIME STEP   1 IN STRESS PERIOD    1
     9 TOTAL ITERATIONS

 MAXIMUM HEAD CHANGE FOR EACH ITERATION (1 INDICATES THE FIRST INNER ITERATION):

    HEAD CHANGE    HEAD CHANGE    HEAD CHANGE    HEAD CHANGE    HEAD CHANGE 
   LAYER,ROW,COL  LAYER,ROW,COL  LAYER,ROW,COL  LAYER,ROW,COL  LAYER,ROW,COL
 ---------------------------------------------------------------------------
  1  0.1369E-01  0  0.6460E-02  0 -0.3948E-02  0  0.1003E-01  0 -0.6939E-02
   ( 15,  1, 86)  ( 11,  1, 35)  (  8,  1, 12)  (  7,  1, 42)  (  7,  1, 44)
  0 -0.4456E-02  0  0.1513E-02  0 -0.8456E-03  1  0.6781E-03
   ( 11,  1, 50)  ( 11,  1, 50)  ( 11,  1, 57)  ( 11,  1, 57)

 MAXIMUM RESIDUAL FOR EACH ITERATION (1 INDICATES THE FIRST INNER ITERATION):

    RESIDUAL       RESIDUAL       RESIDUAL       RESIDUAL       RESIDUAL    
   LAYER,ROW,COL  LAYER,ROW,COL  LAYER,ROW,COL  LAYER,ROW,COL  LAYER,ROW,COL
 ---------------------------------------------------------------------------
  1  0.1337E+06  0 -0.9419E+05  0 -0.9337E+05  0 -0.7589E+05  0  -6169.    
   ( 21,  1, 89)  ( 19,  1, 89)  ( 19,  1, 89)  ( 19,  1, 89)  ( 17,  1, 87)
  0   3042.      0   2623.      0   1162.      1   1040.    
   ( 17,  1, 88)  ( 22,  1, 87)  ( 22,  1, 87)  ( 22,  1, 87)


 FLOW MODEL IS TRANSIENT
 FLOW MODEL CONTAINS CONSTANT-HEAD CELLS


 MAXIMUM STEPSIZE DURING WHICH ANY PARTICLE CANNOT MOVE MORE THAN ONE CELL
 =  12.93    (WHEN MIN. R.F.=1)  AT K=  17, I=   1, J=  90

 MAXIMUM STEPSIZE WHICH MEETS STABILITY CRITERION OF THE ADVECTION TERM
 (FOR PURE FINITE-DIFFERENCE OPTION, MIXELM=0) 
 =  8.064    (WHEN MIN. R.F.=1)  AT K=  16, I=   1, J=  90


 TOTAL NUMBER OF POINT SOURCES/SINKS PRESENT IN THE FLOW MODEL =    30

 MAXIMUM STEPSIZE WHICH MEETS STABILITY CRITERION OF THE SINK & SOURCE TERM
 =  12.30    (WHEN MIN. R.F.=1)  AT K=  17, I=   1, J=  91

 MAXIMUM STEPSIZE WHICH MEETS STABILITY CRITERION OF THE DISPERSION TERM
 =  4.057    (WHEN MIN. R.F.=1)  AT K=  17, I=   1, J=  90
     1 CALLS TO GCG PACKAGE FOR TRANSPORT TIME STEP 337 IN FLOW TIME STEP   1 STRESS PERIOD   1
     8 TOTAL ITERATIONS
     1 CALLS TO GCG PACKAGE FOR TRANSPORT TIME STEP 337 IN FLOW TIME STEP   1 STRESS PERIOD   1
     8 TOTAL ITERATIONS
 
 SOLVING FOR HEAD 


     2 CALLS TO PCG ROUTINE FOR TIME STEP   1 IN STRESS PERIOD    1
     8 TOTAL ITERATIONS

 MAXIMUM HEAD CHANGE FOR EACH ITERATION (1 INDICATES THE FIRST INNER ITERATION):

    HEAD CHANGE    HEAD CHANGE    HEAD CHANGE    HEAD CHANGE    HEAD CHANGE 
   LAYER,ROW,COL  LAYER,ROW,COL  LAYER,ROW,COL  LAYER,ROW,COL  LAYER,ROW,COL
 ---------------------------------------------------------------------------
  1 -0.1367E-01  0  0.4019E-02  0  0.3988E-02  0 -0.1028E-01  0  0.1039E-01
   ( 15,  1, 86)  ( 17,  1, 89)  (  8,  1, 12)  ( 11,  1, 57)  ( 11,  1, 57)
  0  0.2029E-02  0  0.6855E-03  1  0.5739E-03
   ( 11,  1, 68)  ( 11,  1, 49)  ( 11,  1, 59)

 MAXIMUM RESIDUAL FOR EACH ITERATION (1 INDICATES THE FIRST INNER ITERATION):

    RESIDUAL       RESIDUAL       RESIDUAL       RESIDUAL       RESIDUAL    
   LAYER,ROW,COL  LAYER,ROW,COL  LAYER,ROW,COL  LAYER,ROW,COL  LAYER,ROW,COL
 ---------------------------------------------------------------------------
  1 -0.1358E+06  0  0.9661E+05  0  0.9582E+05  0  0.2280E+05  0   5117.    
   ( 21,  1, 89)  ( 19,  1, 89)  ( 19,  1, 89)  ( 19,  1, 89)  ( 17,  1, 87)
  0  -2829.      0  -2524.      1  -2084.    
   ( 22,  1, 87)  ( 22,  1, 87)  ( 22,  1, 87)


 FLOW MODEL IS TRANSIENT
 FLOW MODEL CONTAINS CONSTANT-HEAD CELLS


 MAXIMUM STEPSIZE DURING WHICH ANY PARTICLE CANNOT MOVE MORE THAN ONE CELL
 =  13.24    (WHEN MIN. R.F.=1)  AT K=  17, I=   1, J=  90

 MAXIMUM STEPSIZE WHICH MEETS STABILITY CRITERION OF THE ADVECTION TERM
 (FOR PURE FINITE-DIFFERENCE OPTION, MIXELM=0) 
 =  8.012    (WHEN MIN. R.F.=1)  AT K=  16, I=   1, J=  90


 TOTAL NUMBER OF POINT SOURCES/SINKS PRESENT IN THE FLOW MODEL =    30

 MAXIMUM STEPSIZE WHICH MEETS STABILITY CRITERION OF THE SINK & SOURCE TERM
 =  12.21    (WHEN MIN. R.F.=1)  AT K=  17, I=   1, J=  91

 MAXIMUM STEPSIZE WHICH MEETS STABILITY CRITERION OF THE DISPERSION TERM
 =  4.374    (WHEN MIN. R.F.=1)  AT K=  17, I=   1, J=  90
     1 CALLS TO GCG PACKAGE FOR TRANSPORT TIME STEP 338 IN FLOW TIME STEP   1 STRESS PERIOD   1
    10 TOTAL ITERATIONS
     1 CALLS TO GCG PACKAGE FOR TRANSPORT TIME STEP 338 IN FLOW TIME STEP   1 STRESS PERIOD   1
     8 TOTAL ITERATIONS
 
 SOLVING FOR HEAD 


     2 CALLS TO PCG ROUTINE FOR TIME STEP   1 IN STRESS PERIOD    1
     9 TOTAL ITERATIONS

 MAXIMUM HEAD CHANGE FOR EACH ITERATION (1 INDICATES THE FIRST INNER ITERATION):

    HEAD CHANGE    HEAD CHANGE    HEAD CHANGE    HEAD CHANGE    HEAD CHANGE 
   LAYER,ROW,COL  LAYER,ROW,COL  LAYER,ROW,COL  LAYER,ROW,COL  LAYER,ROW,COL
 ---------------------------------------------------------------------------
  1  0.1369E-01  0  0.6886E-02  0 -0.3319E-02  0 -0.9419E-02  0  0.6815E-02
   ( 15,  1, 86)  (  9,  1, 51)  (  7,  1, 12)  (  8,  1, 51)  ( 10,  1, 51)
  0 -0.3479E-02  0 -0.1619E-02  0 -0.6118E-03  1  0.4691E-03
   ( 11,  1, 68)  ( 11,  1, 58)  ( 11,  1, 65)  ( 11,  1, 64)

 MAXIMUM RESIDUAL FOR EACH ITERATION (1 INDICATES THE FIRST INNER ITERATION):

    RESIDUAL       RESIDUAL       RESIDUAL       RESIDUAL       RESIDUAL    
   LAYER,ROW,COL  LAYER,ROW,COL  LAYER,ROW,COL  LAYER,ROW,COL  LAYER,ROW,COL
 ---------------------------------------------------------------------------
  1  0.1365E+06  0 -0.9731E+05  0 -0.9630E+05  0 -0.7657E+05  0  -6097.    
   ( 21,  1, 89)  ( 19,  1, 89)  ( 19,  1, 89)  ( 19,  1, 89)  ( 17,  1, 87)
  0   2948.      0   2597.      0   799.6      1   695.6    
   ( 17,  1, 88)  ( 22,  1, 87)  ( 22,  1, 87)  ( 22,  1, 87)


 FLOW MODEL IS TRANSIENT
 FLOW MODEL CONTAINS CONSTANT-HEAD CELLS


 MAXIMUM STEPSIZE DURING WHICH ANY PARTICLE CANNOT MOVE MORE THAN ONE CELL
 =  12.89    (WHEN MIN. R.F.=1)  AT K=  17, I=   1, J=  90

 MAXIMUM STEPSIZE WHICH MEETS STABILITY CRITERION OF THE ADVECTION TERM
 (FOR PURE FINITE-DIFFERENCE OPTION, MIXELM=0) 
 =  8.056    (WHEN MIN. R.F.=1)  AT K=  16, I=   1, J=  90


 TOTAL NUMBER OF POINT SOURCES/SINKS PRESENT IN THE FLOW MODEL =    30

 MAXIMUM STEPSIZE WHICH MEETS STABILITY CRITERION OF THE SINK & SOURCE TERM
 =  12.27    (WHEN MIN. R.F.=1)  AT K=  17, I=   1, J=  91

 MAXIMUM STEPSIZE WHICH MEETS STABILITY CRITERION OF THE DISPERSION TERM
 =  4.039    (WHEN MIN. R.F.=1)  AT K=  17, I=   1, J=  90
     1 CALLS TO GCG PACKAGE FOR TRANSPORT TIME STEP 339 IN FLOW TIME STEP   1 STRESS PERIOD   1
     8 TOTAL ITERATIONS
     1 CALLS TO GCG PACKAGE FOR TRANSPORT TIME STEP 339 IN FLOW TIME STEP   1 STRESS PERIOD   1
     8 TOTAL ITERATIONS
 
 SOLVING FOR HEAD 


     2 CALLS TO PCG ROUTINE FOR TIME STEP   1 IN STRESS PERIOD    1
     9 TOTAL ITERATIONS

 MAXIMUM HEAD CHANGE FOR EACH ITERATION (1 INDICATES THE FIRST INNER ITERATION):

    HEAD CHANGE    HEAD CHANGE    HEAD CHANGE    HEAD CHANGE    HEAD CHANGE 
   LAYER,ROW,COL  LAYER,ROW,COL  LAYER,ROW,COL  LAYER,ROW,COL  LAYER,ROW,COL
 ---------------------------------------------------------------------------
  1 -0.1362E-01  0  0.4005E-02  0  0.4271E-02  0  0.1142E-01  0 -0.1198E-01
   ( 15,  1, 86)  ( 17,  1, 89)  (  8,  1, 12)  ( 11,  1, 53)  ( 11,  1, 53)
  0  0.1422E-02  0  0.1083E-02  0  0.8492E-03  1 -0.4638E-03
   ( 11,  1, 53)  ( 11,  1, 70)  ( 11,  1, 61)  ( 11,  1, 60)

 MAXIMUM RESIDUAL FOR EACH ITERATION (1 INDICATES THE FIRST INNER ITERATION):

    RESIDUAL       RESIDUAL       RESIDUAL       RESIDUAL       RESIDUAL    
   LAYER,ROW,COL  LAYER,ROW,COL  LAYER,ROW,COL  LAYER,ROW,COL  LAYER,ROW,COL
 ---------------------------------------------------------------------------
  1 -0.1348E+06  0  0.9525E+05  0  0.9453E+05  0  0.2962E+05  0   5386.    
   ( 21,  1, 89)  ( 19,  1, 89)  ( 19,  1, 89)  ( 19,  1, 89)  ( 17,  1, 87)
  0  -2860.      0  -2187.      0  -687.1      1  -583.5    
   ( 22,  1, 87)  ( 22,  1, 87)  ( 22,  1, 87)  ( 22,  1, 87)


 FLOW MODEL IS TRANSIENT
 FLOW MODEL CONTAINS CONSTANT-HEAD CELLS


 MAXIMUM STEPSIZE DURING WHICH ANY PARTICLE CANNOT MOVE MORE THAN ONE CELL
 =  13.25    (WHEN MIN. R.F.=1)  AT K=  17, I=   1, J=  90

 MAXIMUM STEPSIZE WHICH MEETS STABILITY CRITERION OF THE ADVECTION TERM
 (FOR PURE FINITE-DIFFERENCE OPTION, MIXELM=0) 
 =  8.016    (WHEN MIN. R.F.=1)  AT K=  16, I=   1, J=  90


 TOTAL NUMBER OF POINT SOURCES/SINKS PRESENT IN THE FLOW MODEL =    30

 MAXIMUM STEPSIZE WHICH MEETS STABILITY CRITERION OF THE SINK & SOURCE TERM
 =  12.21    (WHEN MIN. R.F.=1)  AT K=  17, I=   1, J=  91

 MAXIMUM STEPSIZE WHICH MEETS STABILITY CRITERION OF THE DISPERSION TERM
 =  4.386    (WHEN MIN. R.F.=1)  AT K=  17, I=   1, J=  90
     1 CALLS TO GCG PACKAGE FOR TRANSPORT TIME STEP 340 IN FLOW TIME STEP   1 STRESS PERIOD   1
     9 TOTAL ITERATIONS
  MAXIMUM CONCENTRATION CHANGES FOR EACH ITERATION:
  MAX. CHANGE LAYER,ROW,COL MAX. CHANGE LAYER,ROW,COL MAX. CHANGE LAYER,ROW,COL MAX. CHANGE LAYER,ROW,COL MAX. CHANGE LAYER,ROW,COL
 ------------------------------------------------------------------------------------------------------------------------------------
   0.4923E-01 ( 20,  1, 87)  0.3343E-02 ( 19,  1, 87)  0.2269E-02 ( 18,  1, 87)  0.2197E-03 ( 16,  1, 88)  0.1400E-03 ( 17,  1, 89)
   0.3180E-04 ( 16,  1, 90)  0.8552E-04 ( 21,  1, 78)  0.8103E-04 ( 21,  1, 78)  0.6678E-06 ( 16,  1, 89)
     1 CALLS TO GCG PACKAGE FOR TRANSPORT TIME STEP 340 IN FLOW TIME STEP   1 STRESS PERIOD   1
     8 TOTAL ITERATIONS
  MAXIMUM CONCENTRATION CHANGES FOR EACH ITERATION:
  MAX. CHANGE LAYER,ROW,COL MAX. CHANGE LAYER,ROW,COL MAX. CHANGE LAYER,ROW,COL MAX. CHANGE LAYER,ROW,COL MAX. CHANGE LAYER,ROW,COL
 ------------------------------------------------------------------------------------------------------------------------------------
   0.5715E-01 ( 19,  1, 88)  0.4805E-02 ( 19,  1, 87)  0.2379E-02 ( 18,  1, 87)  0.4260E-03 ( 18,  1, 87)  0.1403E-03 ( 17,  1, 89)
   0.4029E-04 ( 17,  1, 90)  0.6358E-05 ( 17,  1, 90)  0.6210E-06 ( 16,  1, 89)



 >>>>>>>>>>>>>>>>>>>>>>>>>>>>>>>>>>>>>>>>>>>>>>>>>>>>>>>FOR COMPONENT NO. 01<<<<<<<<<<<<<<<<<<<<<<<<<<<<<<<<<<<<<<<<<<<<<<<<<<<<<<<


                                            -------------------------------------------
                                                      TRANSPORT STEP NO.  340
                                            -------------------------------------------

 TOTAL ELAPSED TIME SINCE BEGINNING OF SIMULATION =   17000.00    D   
 .....................................................................

                     CUMMULATIVE MASS BUDGETS AT END OF TRANSPORT STEP  340, TIME STEP    1, STRESS PERIOD    1
                     ------------------------------------------------------------------------------------------

                                                             IN                           OUT
                                                      ----------------             ----------------
                               CONSTANT CONCENTRATION:    0.000000                    0.000000    
                                        CONSTANT HEAD:   0.6729334E+09              -0.6727368E+09
                                                WELLS:    0.000000                    0.000000    
                                             RECHARGE:    0.000000                    0.000000    
                               1ST/0TH ORDER REACTION:    0.000000                    0.000000    
                                MASS STORAGE (SOLUTE):   0.9412670E+08              -0.9432336E+08
                            ---------------------------------------------------------------------------
                                              [TOTAL]:   0.7670608E+09 KG           -0.7670609E+09 KG  

                                                          NET (IN - OUT):   -101.2076    
                                                   DISCREPANCY (PERCENT):  -0.1319420E-04



 >>>>>>>>>>>>>>>>>>>>>>>>>>>>>>>>>>>>>>>>>>>>>>>>>>>>>>>FOR COMPONENT NO. 02<<<<<<<<<<<<<<<<<<<<<<<<<<<<<<<<<<<<<<<<<<<<<<<<<<<<<<<


                                            -------------------------------------------
                                                      TRANSPORT STEP NO.  340
                                            -------------------------------------------

 TOTAL ELAPSED TIME SINCE BEGINNING OF SIMULATION =   17000.00    D   
 .....................................................................

                     CUMMULATIVE MASS BUDGETS AT END OF TRANSPORT STEP  340, TIME STEP    1, STRESS PERIOD    1
                     ------------------------------------------------------------------------------------------

                                                             IN                           OUT
                                                      ----------------             ----------------
                               CONSTANT CONCENTRATION:    0.000000                    0.000000    
                                        CONSTANT HEAD:    0.000000                  -0.7772092E+11
                                                WELLS:    0.000000                    0.000000    
                                             RECHARGE:    0.000000                    0.000000    
                               1ST/0TH ORDER REACTION:   0.2813500E+12                0.000000    
                                MASS STORAGE (SOLUTE):   0.2100394E+11              -0.2246330E+12
                            ---------------------------------------------------------------------------
                                              [TOTAL]:   0.3023543E+12 KG           -0.3023543E+12 KG  

                                                          NET (IN - OUT):   -19961.24    
                                                   DISCREPANCY (PERCENT):  -0.6601938E-05
 
 SOLVING FOR HEAD 


     2 CALLS TO PCG ROUTINE FOR TIME STEP   1 IN STRESS PERIOD    1
     9 TOTAL ITERATIONS

 MAXIMUM HEAD CHANGE FOR EACH ITERATION (1 INDICATES THE FIRST INNER ITERATION):

    HEAD CHANGE    HEAD CHANGE    HEAD CHANGE    HEAD CHANGE    HEAD CHANGE 
   LAYER,ROW,COL  LAYER,ROW,COL  LAYER,ROW,COL  LAYER,ROW,COL  LAYER,ROW,COL
 ---------------------------------------------------------------------------
  1  0.1325E-01  0 -0.3668E-02  0  0.4079E-02  0 -0.5689E-02  0 -0.8437E-02
   ( 15,  1, 86)  ( 17,  1, 89)  (  7,  1, 12)  ( 11,  1, 49)  (  7,  1, 51)
  0  0.2115E-02  0 -0.1080E-02  0 -0.8338E-03  1  0.6570E-03
   ( 11,  1, 67)  ( 11,  1, 68)  ( 11,  1, 57)  ( 11,  1, 56)

 MAXIMUM RESIDUAL FOR EACH ITERATION (1 INDICATES THE FIRST INNER ITERATION):

    RESIDUAL       RESIDUAL       RESIDUAL       RESIDUAL       RESIDUAL    
   LAYER,ROW,COL  LAYER,ROW,COL  LAYER,ROW,COL  LAYER,ROW,COL  LAYER,ROW,COL
 ---------------------------------------------------------------------------
  1  0.1350E+06  0 -0.9516E+05  0 -0.7777E+05  0 -0.3309E+05  0  -6012.    
   ( 21,  1, 89)  ( 19,  1, 89)  ( 19,  1, 89)  ( 19,  1, 89)  ( 17,  1, 87)
  0   2874.      0   2583.      0   865.8      1   713.3    
   ( 22,  1, 87)  ( 22,  1, 87)  ( 22,  1, 87)  ( 22,  1, 87)


 FLOW MODEL IS TRANSIENT
 FLOW MODEL CONTAINS CONSTANT-HEAD CELLS


 MAXIMUM STEPSIZE DURING WHICH ANY PARTICLE CANNOT MOVE MORE THAN ONE CELL
 =  12.86    (WHEN MIN. R.F.=1)  AT K=  17, I=   1, J=  90

 MAXIMUM STEPSIZE WHICH MEETS STABILITY CRITERION OF THE ADVECTION TERM
 (FOR PURE FINITE-DIFFERENCE OPTION, MIXELM=0) 
 =  8.038    (WHEN MIN. R.F.=1)  AT K=  16, I=   1, J=  90


 TOTAL NUMBER OF POINT SOURCES/SINKS PRESENT IN THE FLOW MODEL =    30

 MAXIMUM STEPSIZE WHICH MEETS STABILITY CRITERION OF THE SINK & SOURCE TERM
 =  12.21    (WHEN MIN. R.F.=1)  AT K=  17, I=   1, J=  91

 MAXIMUM STEPSIZE WHICH MEETS STABILITY CRITERION OF THE DISPERSION TERM
 =  4.030    (WHEN MIN. R.F.=1)  AT K=  17, I=   1, J=  90
     1 CALLS TO GCG PACKAGE FOR TRANSPORT TIME STEP 341 IN FLOW TIME STEP   1 STRESS PERIOD   1
     8 TOTAL ITERATIONS
     1 CALLS TO GCG PACKAGE FOR TRANSPORT TIME STEP 341 IN FLOW TIME STEP   1 STRESS PERIOD   1
     8 TOTAL ITERATIONS
 
 SOLVING FOR HEAD 


     2 CALLS TO PCG ROUTINE FOR TIME STEP   1 IN STRESS PERIOD    1
     9 TOTAL ITERATIONS

 MAXIMUM HEAD CHANGE FOR EACH ITERATION (1 INDICATES THE FIRST INNER ITERATION):

    HEAD CHANGE    HEAD CHANGE    HEAD CHANGE    HEAD CHANGE    HEAD CHANGE 
   LAYER,ROW,COL  LAYER,ROW,COL  LAYER,ROW,COL  LAYER,ROW,COL  LAYER,ROW,COL
 ---------------------------------------------------------------------------
  1 -0.1353E-01  0  0.3730E-02  0  0.3714E-02  0 -0.1237E-01  0  0.1272E-01
   ( 15,  1, 86)  ( 17,  1, 89)  (  8,  1, 12)  ( 11,  1, 56)  ( 11,  1, 56)
  0  0.2819E-02  0  0.1129E-02  0  0.7542E-03  1 -0.7366E-03
   ( 11,  1, 67)  ( 11,  1, 49)  ( 11,  1, 70)  ( 11,  1, 70)

 MAXIMUM RESIDUAL FOR EACH ITERATION (1 INDICATES THE FIRST INNER ITERATION):

    RESIDUAL       RESIDUAL       RESIDUAL       RESIDUAL       RESIDUAL    
   LAYER,ROW,COL  LAYER,ROW,COL  LAYER,ROW,COL  LAYER,ROW,COL  LAYER,ROW,COL
 ---------------------------------------------------------------------------
  1 -0.1344E+06  0  0.9436E+05  0  0.9355E+05  0  0.2047E+05  0   4957.    
   ( 21,  1, 89)  ( 19,  1, 89)  ( 19,  1, 89)  ( 19,  1, 89)  ( 17,  1, 87)
  0  -2812.      0  -2511.      0  -1039.      1  -917.1    
   ( 22,  1, 87)  ( 22,  1, 87)  ( 22,  1, 87)  ( 22,  1, 87)


 FLOW MODEL IS TRANSIENT
 FLOW MODEL CONTAINS CONSTANT-HEAD CELLS


 MAXIMUM STEPSIZE DURING WHICH ANY PARTICLE CANNOT MOVE MORE THAN ONE CELL
 =  13.22    (WHEN MIN. R.F.=1)  AT K=  17, I=   1, J=  90

 MAXIMUM STEPSIZE WHICH MEETS STABILITY CRITERION OF THE ADVECTION TERM
 (FOR PURE FINITE-DIFFERENCE OPTION, MIXELM=0) 
 =  8.006    (WHEN MIN. R.F.=1)  AT K=  16, I=   1, J=  90


 TOTAL NUMBER OF POINT SOURCES/SINKS PRESENT IN THE FLOW MODEL =    30

 MAXIMUM STEPSIZE WHICH MEETS STABILITY CRITERION OF THE SINK & SOURCE TERM
 =  12.17    (WHEN MIN. R.F.=1)  AT K=  17, I=   1, J=  91

 MAXIMUM STEPSIZE WHICH MEETS STABILITY CRITERION OF THE DISPERSION TERM
 =  4.365    (WHEN MIN. R.F.=1)  AT K=  17, I=   1, J=  90
     1 CALLS TO GCG PACKAGE FOR TRANSPORT TIME STEP 342 IN FLOW TIME STEP   1 STRESS PERIOD   1
     9 TOTAL ITERATIONS
     1 CALLS TO GCG PACKAGE FOR TRANSPORT TIME STEP 342 IN FLOW TIME STEP   1 STRESS PERIOD   1
     8 TOTAL ITERATIONS
 
 SOLVING FOR HEAD 


     2 CALLS TO PCG ROUTINE FOR TIME STEP   1 IN STRESS PERIOD    1
     9 TOTAL ITERATIONS

 MAXIMUM HEAD CHANGE FOR EACH ITERATION (1 INDICATES THE FIRST INNER ITERATION):

    HEAD CHANGE    HEAD CHANGE    HEAD CHANGE    HEAD CHANGE    HEAD CHANGE 
   LAYER,ROW,COL  LAYER,ROW,COL  LAYER,ROW,COL  LAYER,ROW,COL  LAYER,ROW,COL
 ---------------------------------------------------------------------------
  1  0.1351E-01  0 -0.3726E-02  0 -0.2413E-02  0  0.8248E-02  0 -0.8291E-02
   ( 15,  1, 86)  ( 17,  1, 89)  (  8,  1, 12)  (  7,  1, 47)  (  7,  1, 47)
  0  0.1805E-02  0 -0.1083E-02  0 -0.9203E-03  1  0.7089E-03
   ( 11,  1, 65)  ( 11,  1, 66)  ( 11,  1, 55)  ( 11,  1, 55)

 MAXIMUM RESIDUAL FOR EACH ITERATION (1 INDICATES THE FIRST INNER ITERATION):

    RESIDUAL       RESIDUAL       RESIDUAL       RESIDUAL       RESIDUAL    
   LAYER,ROW,COL  LAYER,ROW,COL  LAYER,ROW,COL  LAYER,ROW,COL  LAYER,ROW,COL
 ---------------------------------------------------------------------------
  1  0.1317E+06  0 -0.9250E+05  0 -0.9035E+05  0 -0.2959E+05  0  -5786.    
   ( 21,  1, 89)  ( 19,  1, 89)  ( 19,  1, 89)  ( 19,  1, 89)  ( 17,  1, 87)
  0   2891.      0   2578.      0   920.8      1   780.4    
   ( 22,  1, 87)  ( 22,  1, 87)  ( 22,  1, 87)  ( 22,  1, 87)


 FLOW MODEL IS TRANSIENT
 FLOW MODEL CONTAINS CONSTANT-HEAD CELLS


 MAXIMUM STEPSIZE DURING WHICH ANY PARTICLE CANNOT MOVE MORE THAN ONE CELL
 =  12.87    (WHEN MIN. R.F.=1)  AT K=  17, I=   1, J=  90

 MAXIMUM STEPSIZE WHICH MEETS STABILITY CRITERION OF THE ADVECTION TERM
 (FOR PURE FINITE-DIFFERENCE OPTION, MIXELM=0) 
 =  8.041    (WHEN MIN. R.F.=1)  AT K=  16, I=   1, J=  90


 TOTAL NUMBER OF POINT SOURCES/SINKS PRESENT IN THE FLOW MODEL =    30

 MAXIMUM STEPSIZE WHICH MEETS STABILITY CRITERION OF THE SINK & SOURCE TERM
 =  12.22    (WHEN MIN. R.F.=1)  AT K=  17, I=   1, J=  91

 MAXIMUM STEPSIZE WHICH MEETS STABILITY CRITERION OF THE DISPERSION TERM
 =  4.038    (WHEN MIN. R.F.=1)  AT K=  17, I=   1, J=  90
     1 CALLS TO GCG PACKAGE FOR TRANSPORT TIME STEP 343 IN FLOW TIME STEP   1 STRESS PERIOD   1
     8 TOTAL ITERATIONS
     1 CALLS TO GCG PACKAGE FOR TRANSPORT TIME STEP 343 IN FLOW TIME STEP   1 STRESS PERIOD   1
     8 TOTAL ITERATIONS
 
 SOLVING FOR HEAD 


     2 CALLS TO PCG ROUTINE FOR TIME STEP   1 IN STRESS PERIOD    1
     8 TOTAL ITERATIONS

 MAXIMUM HEAD CHANGE FOR EACH ITERATION (1 INDICATES THE FIRST INNER ITERATION):

    HEAD CHANGE    HEAD CHANGE    HEAD CHANGE    HEAD CHANGE    HEAD CHANGE 
   LAYER,ROW,COL  LAYER,ROW,COL  LAYER,ROW,COL  LAYER,ROW,COL  LAYER,ROW,COL
 ---------------------------------------------------------------------------
  1 -0.1351E-01  0  0.3724E-02  0  0.2845E-02  0 -0.1356E-01  0  0.1320E-01
   ( 15,  1, 86)  ( 17,  1, 89)  (  8,  1, 12)  ( 11,  1, 54)  ( 11,  1, 54)
  0 -0.2296E-02  0 -0.8059E-03  1  0.4939E-03
   ( 11,  1, 50)  ( 11,  1, 65)  ( 11,  1, 55)

 MAXIMUM RESIDUAL FOR EACH ITERATION (1 INDICATES THE FIRST INNER ITERATION):

    RESIDUAL       RESIDUAL       RESIDUAL       RESIDUAL       RESIDUAL    
   LAYER,ROW,COL  LAYER,ROW,COL  LAYER,ROW,COL  LAYER,ROW,COL  LAYER,ROW,COL
 ---------------------------------------------------------------------------
  1 -0.1333E+06  0  0.9406E+05  0  0.9301E+05  0  0.2618E+05  0   5369.    
   ( 21,  1, 89)  ( 19,  1, 89)  ( 19,  1, 89)  ( 19,  1, 89)  ( 17,  1, 87)
  0  -2828.      0  -2538.      1  -2051.    
   ( 22,  1, 87)  ( 22,  1, 87)  ( 22,  1, 87)


 FLOW MODEL IS TRANSIENT
 FLOW MODEL CONTAINS CONSTANT-HEAD CELLS


 MAXIMUM STEPSIZE DURING WHICH ANY PARTICLE CANNOT MOVE MORE THAN ONE CELL
 =  13.22    (WHEN MIN. R.F.=1)  AT K=  17, I=   1, J=  90

 MAXIMUM STEPSIZE WHICH MEETS STABILITY CRITERION OF THE ADVECTION TERM
 (FOR PURE FINITE-DIFFERENCE OPTION, MIXELM=0) 
 =  8.008    (WHEN MIN. R.F.=1)  AT K=  16, I=   1, J=  90


 TOTAL NUMBER OF POINT SOURCES/SINKS PRESENT IN THE FLOW MODEL =    30

 MAXIMUM STEPSIZE WHICH MEETS STABILITY CRITERION OF THE SINK & SOURCE TERM
 =  12.17    (WHEN MIN. R.F.=1)  AT K=  17, I=   1, J=  91

 MAXIMUM STEPSIZE WHICH MEETS STABILITY CRITERION OF THE DISPERSION TERM
 =  4.363    (WHEN MIN. R.F.=1)  AT K=  17, I=   1, J=  90
     1 CALLS TO GCG PACKAGE FOR TRANSPORT TIME STEP 344 IN FLOW TIME STEP   1 STRESS PERIOD   1
     8 TOTAL ITERATIONS
     1 CALLS TO GCG PACKAGE FOR TRANSPORT TIME STEP 344 IN FLOW TIME STEP   1 STRESS PERIOD   1
     8 TOTAL ITERATIONS
 
 SOLVING FOR HEAD 


     2 CALLS TO PCG ROUTINE FOR TIME STEP   1 IN STRESS PERIOD    1
    10 TOTAL ITERATIONS

 MAXIMUM HEAD CHANGE FOR EACH ITERATION (1 INDICATES THE FIRST INNER ITERATION):

    HEAD CHANGE    HEAD CHANGE    HEAD CHANGE    HEAD CHANGE    HEAD CHANGE 
   LAYER,ROW,COL  LAYER,ROW,COL  LAYER,ROW,COL  LAYER,ROW,COL  LAYER,ROW,COL
 ---------------------------------------------------------------------------
  1  0.1379E-01  0  0.7750E-02  0 -0.3304E-02  0 -0.9127E-02  0  0.6271E-02
   ( 15,  1, 86)  (  5,  1, 42)  (  7,  1, 12)  (  9,  1, 46)  (  8,  1, 47)
  0  0.4777E-02  0 -0.1919E-02  0 -0.1054E-02  0 -0.6983E-03  1  0.2679E-03
   ( 11,  1, 54)  ( 11,  1, 54)  ( 11,  1, 65)  ( 11,  1, 49)  ( 11,  1, 60)

 MAXIMUM RESIDUAL FOR EACH ITERATION (1 INDICATES THE FIRST INNER ITERATION):

    RESIDUAL       RESIDUAL       RESIDUAL       RESIDUAL       RESIDUAL    
   LAYER,ROW,COL  LAYER,ROW,COL  LAYER,ROW,COL  LAYER,ROW,COL  LAYER,ROW,COL
 ---------------------------------------------------------------------------
  1  0.1339E+06  0 -0.9478E+05  0 -0.9379E+05  0 -0.7684E+05  0  -6081.    
   ( 21,  1, 89)  ( 19,  1, 89)  ( 19,  1, 89)  ( 19,  1, 89)  ( 17,  1, 87)
  0   2785.      0   2614.      0   1647.      0   380.1      1   326.9    
   ( 17,  1, 88)  ( 22,  1, 87)  ( 22,  1, 87)  ( 22,  1, 87)  ( 22,  1, 87)


 FLOW MODEL IS TRANSIENT
 FLOW MODEL CONTAINS CONSTANT-HEAD CELLS


 MAXIMUM STEPSIZE DURING WHICH ANY PARTICLE CANNOT MOVE MORE THAN ONE CELL
 =  12.91    (WHEN MIN. R.F.=1)  AT K=  17, I=   1, J=  90

 MAXIMUM STEPSIZE WHICH MEETS STABILITY CRITERION OF THE ADVECTION TERM
 (FOR PURE FINITE-DIFFERENCE OPTION, MIXELM=0) 
 =  8.060    (WHEN MIN. R.F.=1)  AT K=  16, I=   1, J=  90


 TOTAL NUMBER OF POINT SOURCES/SINKS PRESENT IN THE FLOW MODEL =    30

 MAXIMUM STEPSIZE WHICH MEETS STABILITY CRITERION OF THE SINK & SOURCE TERM
 =  12.27    (WHEN MIN. R.F.=1)  AT K=  17, I=   1, J=  91

 MAXIMUM STEPSIZE WHICH MEETS STABILITY CRITERION OF THE DISPERSION TERM
 =  4.049    (WHEN MIN. R.F.=1)  AT K=  17, I=   1, J=  90
     1 CALLS TO GCG PACKAGE FOR TRANSPORT TIME STEP 345 IN FLOW TIME STEP   1 STRESS PERIOD   1
     8 TOTAL ITERATIONS
  MAXIMUM CONCENTRATION CHANGES FOR EACH ITERATION:
  MAX. CHANGE LAYER,ROW,COL MAX. CHANGE LAYER,ROW,COL MAX. CHANGE LAYER,ROW,COL MAX. CHANGE LAYER,ROW,COL MAX. CHANGE LAYER,ROW,COL
 ------------------------------------------------------------------------------------------------------------------------------------
   0.5220E-01 ( 20,  1, 87)  0.4235E-02 ( 19,  1, 89)  0.2058E-02 ( 18,  1, 86)  0.4901E-03 ( 20,  1, 89)  0.9450E-04 ( 16,  1, 89)
   0.2003E-04 ( 20,  1, 89)  0.1945E-04 ( 16,  1, 90)  0.7174E-06 ( 17,  1, 90)
     1 CALLS TO GCG PACKAGE FOR TRANSPORT TIME STEP 345 IN FLOW TIME STEP   1 STRESS PERIOD   1
     8 TOTAL ITERATIONS
  MAXIMUM CONCENTRATION CHANGES FOR EACH ITERATION:
  MAX. CHANGE LAYER,ROW,COL MAX. CHANGE LAYER,ROW,COL MAX. CHANGE LAYER,ROW,COL MAX. CHANGE LAYER,ROW,COL MAX. CHANGE LAYER,ROW,COL
 ------------------------------------------------------------------------------------------------------------------------------------
   0.6110E-01 ( 20,  1, 87)  0.4802E-02 ( 19,  1, 89)  0.2038E-02 ( 19,  1, 89)  0.6327E-03 ( 19,  1, 89)  0.1220E-03 ( 16,  1, 89)
   0.3306E-04 ( 23,  1, 87)  0.1581E-04 ( 17,  1, 90)  0.9079E-06 ( 17,  1, 90)
 
 SOLVING FOR HEAD 


     2 CALLS TO PCG ROUTINE FOR TIME STEP   1 IN STRESS PERIOD    1
     9 TOTAL ITERATIONS

 MAXIMUM HEAD CHANGE FOR EACH ITERATION (1 INDICATES THE FIRST INNER ITERATION):

    HEAD CHANGE    HEAD CHANGE    HEAD CHANGE    HEAD CHANGE    HEAD CHANGE 
   LAYER,ROW,COL  LAYER,ROW,COL  LAYER,ROW,COL  LAYER,ROW,COL  LAYER,ROW,COL
 ---------------------------------------------------------------------------
  1 -0.1352E-01  0  0.3863E-02  0  0.2967E-02  0 -0.5893E-02  0  0.7203E-02
   ( 15,  1, 86)  ( 17,  1, 89)  (  8,  1, 12)  ( 11,  1, 60)  ( 11,  1, 59)
  0  0.2610E-02  0  0.1086E-02  0  0.7793E-03  1 -0.4310E-03
   ( 11,  1, 68)  ( 11,  1, 54)  ( 11,  1, 61)  ( 11,  1, 63)

 MAXIMUM RESIDUAL FOR EACH ITERATION (1 INDICATES THE FIRST INNER ITERATION):

    RESIDUAL       RESIDUAL       RESIDUAL       RESIDUAL       RESIDUAL    
   LAYER,ROW,COL  LAYER,ROW,COL  LAYER,ROW,COL  LAYER,ROW,COL  LAYER,ROW,COL
 ---------------------------------------------------------------------------
  1 -0.1342E+06  0  0.9524E+05  0  0.9422E+05  0  0.1359E+05  0  -4034.    
   ( 21,  1, 89)  ( 19,  1, 89)  ( 19,  1, 89)  ( 19,  1, 89)  ( 17,  1, 88)
  0  -2850.      0  -2320.      0  -752.9      1  -651.3    
   ( 22,  1, 87)  ( 22,  1, 87)  ( 22,  1, 87)  ( 22,  1, 87)


 FLOW MODEL IS TRANSIENT
 FLOW MODEL CONTAINS CONSTANT-HEAD CELLS


 MAXIMUM STEPSIZE DURING WHICH ANY PARTICLE CANNOT MOVE MORE THAN ONE CELL
 =  13.25    (WHEN MIN. R.F.=1)  AT K=  17, I=   1, J=  90

 MAXIMUM STEPSIZE WHICH MEETS STABILITY CRITERION OF THE ADVECTION TERM
 (FOR PURE FINITE-DIFFERENCE OPTION, MIXELM=0) 
 =  8.017    (WHEN MIN. R.F.=1)  AT K=  16, I=   1, J=  90


 TOTAL NUMBER OF POINT SOURCES/SINKS PRESENT IN THE FLOW MODEL =    30

 MAXIMUM STEPSIZE WHICH MEETS STABILITY CRITERION OF THE SINK & SOURCE TERM
 =  12.21    (WHEN MIN. R.F.=1)  AT K=  17, I=   1, J=  91

 MAXIMUM STEPSIZE WHICH MEETS STABILITY CRITERION OF THE DISPERSION TERM
 =  4.380    (WHEN MIN. R.F.=1)  AT K=  17, I=   1, J=  90
     1 CALLS TO GCG PACKAGE FOR TRANSPORT TIME STEP 346 IN FLOW TIME STEP   1 STRESS PERIOD   1
     9 TOTAL ITERATIONS
     1 CALLS TO GCG PACKAGE FOR TRANSPORT TIME STEP 346 IN FLOW TIME STEP   1 STRESS PERIOD   1
     8 TOTAL ITERATIONS
 
 SOLVING FOR HEAD 


     2 CALLS TO PCG ROUTINE FOR TIME STEP   1 IN STRESS PERIOD    1
     9 TOTAL ITERATIONS

 MAXIMUM HEAD CHANGE FOR EACH ITERATION (1 INDICATES THE FIRST INNER ITERATION):

    HEAD CHANGE    HEAD CHANGE    HEAD CHANGE    HEAD CHANGE    HEAD CHANGE 
   LAYER,ROW,COL  LAYER,ROW,COL  LAYER,ROW,COL  LAYER,ROW,COL  LAYER,ROW,COL
 ---------------------------------------------------------------------------
  1  0.1321E-01  0 -0.3533E-02  0 -0.5413E-02  0  0.5676E-02  0 -0.8982E-02
   ( 15,  1, 86)  ( 17,  1, 89)  (  9,  1, 12)  (  1,  1, 44)  ( 10,  1, 50)
  0  0.2243E-02  0 -0.1262E-02  0 -0.9327E-03  1  0.7532E-03
   ( 11,  1, 70)  ( 11,  1, 69)  ( 11,  1, 58)  ( 11,  1, 70)

 MAXIMUM RESIDUAL FOR EACH ITERATION (1 INDICATES THE FIRST INNER ITERATION):

    RESIDUAL       RESIDUAL       RESIDUAL       RESIDUAL       RESIDUAL    
   LAYER,ROW,COL  LAYER,ROW,COL  LAYER,ROW,COL  LAYER,ROW,COL  LAYER,ROW,COL
 ---------------------------------------------------------------------------
  1  0.1343E+06  0 -0.9417E+05  0 -0.6749E+05  0 -0.3684E+05  0  -6100.    
   ( 21,  1, 89)  ( 19,  1, 89)  ( 19,  1, 89)  ( 19,  1, 89)  ( 17,  1, 87)
  0   2888.      0   2555.      0   914.1      1   772.6    
   ( 22,  1, 87)  ( 22,  1, 87)  ( 22,  1, 87)  ( 22,  1, 87)


 FLOW MODEL IS TRANSIENT
 FLOW MODEL CONTAINS CONSTANT-HEAD CELLS


 MAXIMUM STEPSIZE DURING WHICH ANY PARTICLE CANNOT MOVE MORE THAN ONE CELL
 =  12.87    (WHEN MIN. R.F.=1)  AT K=  17, I=   1, J=  90

 MAXIMUM STEPSIZE WHICH MEETS STABILITY CRITERION OF THE ADVECTION TERM
 (FOR PURE FINITE-DIFFERENCE OPTION, MIXELM=0) 
 =  8.039    (WHEN MIN. R.F.=1)  AT K=  16, I=   1, J=  90


 TOTAL NUMBER OF POINT SOURCES/SINKS PRESENT IN THE FLOW MODEL =    30

 MAXIMUM STEPSIZE WHICH MEETS STABILITY CRITERION OF THE SINK & SOURCE TERM
 =  12.21    (WHEN MIN. R.F.=1)  AT K=  17, I=   1, J=  91

 MAXIMUM STEPSIZE WHICH MEETS STABILITY CRITERION OF THE DISPERSION TERM
 =  4.035    (WHEN MIN. R.F.=1)  AT K=  17, I=   1, J=  90
     1 CALLS TO GCG PACKAGE FOR TRANSPORT TIME STEP 347 IN FLOW TIME STEP   1 STRESS PERIOD   1
     8 TOTAL ITERATIONS
     1 CALLS TO GCG PACKAGE FOR TRANSPORT TIME STEP 347 IN FLOW TIME STEP   1 STRESS PERIOD   1
     8 TOTAL ITERATIONS
 
 SOLVING FOR HEAD 


     2 CALLS TO PCG ROUTINE FOR TIME STEP   1 IN STRESS PERIOD    1
     8 TOTAL ITERATIONS

 MAXIMUM HEAD CHANGE FOR EACH ITERATION (1 INDICATES THE FIRST INNER ITERATION):

    HEAD CHANGE    HEAD CHANGE    HEAD CHANGE    HEAD CHANGE    HEAD CHANGE 
   LAYER,ROW,COL  LAYER,ROW,COL  LAYER,ROW,COL  LAYER,ROW,COL  LAYER,ROW,COL
 ---------------------------------------------------------------------------
  1 -0.1351E-01  0  0.3714E-02  0  0.3243E-02  0 -0.1052E-01  0  0.1045E-01
   ( 15,  1, 86)  ( 17,  1, 89)  (  8,  1, 12)  ( 11,  1, 49)  ( 11,  1, 50)
  0 -0.2584E-02  0  0.8208E-03  1  0.5113E-03
   ( 11,  1, 53)  ( 11,  1, 53)  ( 11,  1, 59)

 MAXIMUM RESIDUAL FOR EACH ITERATION (1 INDICATES THE FIRST INNER ITERATION):

    RESIDUAL       RESIDUAL       RESIDUAL       RESIDUAL       RESIDUAL    
   LAYER,ROW,COL  LAYER,ROW,COL  LAYER,ROW,COL  LAYER,ROW,COL  LAYER,ROW,COL
 ---------------------------------------------------------------------------
  1 -0.1339E+06  0  0.9412E+05  0  0.9320E+05  0  0.2624E+05  0   5305.    
   ( 21,  1, 89)  ( 19,  1, 89)  ( 19,  1, 89)  ( 19,  1, 89)  ( 17,  1, 87)
  0  -2826.      0  -2515.      1  -2054.    
   ( 22,  1, 87)  ( 22,  1, 87)  ( 22,  1, 87)


 FLOW MODEL IS TRANSIENT
 FLOW MODEL CONTAINS CONSTANT-HEAD CELLS


 MAXIMUM STEPSIZE DURING WHICH ANY PARTICLE CANNOT MOVE MORE THAN ONE CELL
 =  13.22    (WHEN MIN. R.F.=1)  AT K=  17, I=   1, J=  90

 MAXIMUM STEPSIZE WHICH MEETS STABILITY CRITERION OF THE ADVECTION TERM
 (FOR PURE FINITE-DIFFERENCE OPTION, MIXELM=0) 
 =  8.006    (WHEN MIN. R.F.=1)  AT K=  16, I=   1, J=  90


 TOTAL NUMBER OF POINT SOURCES/SINKS PRESENT IN THE FLOW MODEL =    30

 MAXIMUM STEPSIZE WHICH MEETS STABILITY CRITERION OF THE SINK & SOURCE TERM
 =  12.17    (WHEN MIN. R.F.=1)  AT K=  17, I=   1, J=  91

 MAXIMUM STEPSIZE WHICH MEETS STABILITY CRITERION OF THE DISPERSION TERM
 =  4.359    (WHEN MIN. R.F.=1)  AT K=  17, I=   1, J=  90
     1 CALLS TO GCG PACKAGE FOR TRANSPORT TIME STEP 348 IN FLOW TIME STEP   1 STRESS PERIOD   1
     8 TOTAL ITERATIONS
     1 CALLS TO GCG PACKAGE FOR TRANSPORT TIME STEP 348 IN FLOW TIME STEP   1 STRESS PERIOD   1
     8 TOTAL ITERATIONS
 
 SOLVING FOR HEAD 


     2 CALLS TO PCG ROUTINE FOR TIME STEP   1 IN STRESS PERIOD    1
     9 TOTAL ITERATIONS

 MAXIMUM HEAD CHANGE FOR EACH ITERATION (1 INDICATES THE FIRST INNER ITERATION):

    HEAD CHANGE    HEAD CHANGE    HEAD CHANGE    HEAD CHANGE    HEAD CHANGE 
   LAYER,ROW,COL  LAYER,ROW,COL  LAYER,ROW,COL  LAYER,ROW,COL  LAYER,ROW,COL
 ---------------------------------------------------------------------------
  1  0.1380E-01  0  0.7461E-02  0 -0.3393E-02  0 -0.9283E-02  0  0.6448E-02
   ( 15,  1, 86)  (  8,  1, 45)  (  7,  1, 12)  (  8,  1, 46)  (  9,  1, 50)
  0 -0.3989E-02  0 -0.1356E-02  0  0.8144E-03  1 -0.8465E-03
   ( 11,  1, 65)  ( 11,  1, 58)  ( 11,  1, 54)  ( 11,  1, 54)

 MAXIMUM RESIDUAL FOR EACH ITERATION (1 INDICATES THE FIRST INNER ITERATION):

    RESIDUAL       RESIDUAL       RESIDUAL       RESIDUAL       RESIDUAL    
   LAYER,ROW,COL  LAYER,ROW,COL  LAYER,ROW,COL  LAYER,ROW,COL  LAYER,ROW,COL
 ---------------------------------------------------------------------------
  1  0.1332E+06  0 -0.9453E+05  0 -0.9359E+05  0 -0.7553E+05  0  -6069.    
   ( 21,  1, 89)  ( 19,  1, 89)  ( 19,  1, 89)  ( 19,  1, 89)  ( 17,  1, 87)
  0   2755.      0   2607.      0   1626.      1   1441.    
   ( 22,  1, 87)  ( 22,  1, 87)  ( 22,  1, 87)  ( 22,  1, 87)


 FLOW MODEL IS TRANSIENT
 FLOW MODEL CONTAINS CONSTANT-HEAD CELLS


 MAXIMUM STEPSIZE DURING WHICH ANY PARTICLE CANNOT MOVE MORE THAN ONE CELL
 =  12.90    (WHEN MIN. R.F.=1)  AT K=  17, I=   1, J=  90

 MAXIMUM STEPSIZE WHICH MEETS STABILITY CRITERION OF THE ADVECTION TERM
 (FOR PURE FINITE-DIFFERENCE OPTION, MIXELM=0) 
 =  8.056    (WHEN MIN. R.F.=1)  AT K=  16, I=   1, J=  90


 TOTAL NUMBER OF POINT SOURCES/SINKS PRESENT IN THE FLOW MODEL =    30

 MAXIMUM STEPSIZE WHICH MEETS STABILITY CRITERION OF THE SINK & SOURCE TERM
 =  12.27    (WHEN MIN. R.F.=1)  AT K=  17, I=   1, J=  91

 MAXIMUM STEPSIZE WHICH MEETS STABILITY CRITERION OF THE DISPERSION TERM
 =  4.046    (WHEN MIN. R.F.=1)  AT K=  17, I=   1, J=  90
     1 CALLS TO GCG PACKAGE FOR TRANSPORT TIME STEP 349 IN FLOW TIME STEP   1 STRESS PERIOD   1
     8 TOTAL ITERATIONS
     1 CALLS TO GCG PACKAGE FOR TRANSPORT TIME STEP 349 IN FLOW TIME STEP   1 STRESS PERIOD   1
     8 TOTAL ITERATIONS
 
 SOLVING FOR HEAD 


     2 CALLS TO PCG ROUTINE FOR TIME STEP   1 IN STRESS PERIOD    1
     9 TOTAL ITERATIONS

 MAXIMUM HEAD CHANGE FOR EACH ITERATION (1 INDICATES THE FIRST INNER ITERATION):

    HEAD CHANGE    HEAD CHANGE    HEAD CHANGE    HEAD CHANGE    HEAD CHANGE 
   LAYER,ROW,COL  LAYER,ROW,COL  LAYER,ROW,COL  LAYER,ROW,COL  LAYER,ROW,COL
 ---------------------------------------------------------------------------
  1 -0.1376E-01  0  0.4119E-02  0  0.4337E-02  0  0.1207E-01  0 -0.1266E-01
   ( 15,  1, 86)  ( 17,  1, 89)  (  8,  1, 12)  ( 11,  1, 54)  ( 11,  1, 54)
  0  0.1463E-02  0  0.1080E-02  0  0.8930E-03  1 -0.3451E-03
   ( 11,  1, 50)  ( 11,  1, 64)  ( 11,  1, 49)  ( 11,  1, 49)

 MAXIMUM RESIDUAL FOR EACH ITERATION (1 INDICATES THE FIRST INNER ITERATION):

    RESIDUAL       RESIDUAL       RESIDUAL       RESIDUAL       RESIDUAL    
   LAYER,ROW,COL  LAYER,ROW,COL  LAYER,ROW,COL  LAYER,ROW,COL  LAYER,ROW,COL
 ---------------------------------------------------------------------------
  1 -0.1350E+06  0  0.9587E+05  0  0.9517E+05  0  0.2637E+05  0   5152.    
   ( 21,  1, 89)  ( 19,  1, 89)  ( 19,  1, 89)  ( 19,  1, 89)  ( 17,  1, 87)
  0  -2876.      0  -2012.      0  -612.2      1  -533.2    
   ( 22,  1, 87)  ( 22,  1, 87)  ( 22,  1, 87)  ( 22,  1, 87)


 FLOW MODEL IS TRANSIENT
 FLOW MODEL CONTAINS CONSTANT-HEAD CELLS


 MAXIMUM STEPSIZE DURING WHICH ANY PARTICLE CANNOT MOVE MORE THAN ONE CELL
 =  13.22    (WHEN MIN. R.F.=1)  AT K=  17, I=   1, J=  90

 MAXIMUM STEPSIZE WHICH MEETS STABILITY CRITERION OF THE ADVECTION TERM
 (FOR PURE FINITE-DIFFERENCE OPTION, MIXELM=0) 
 =  8.003    (WHEN MIN. R.F.=1)  AT K=  16, I=   1, J=  90


 TOTAL NUMBER OF POINT SOURCES/SINKS PRESENT IN THE FLOW MODEL =    30

 MAXIMUM STEPSIZE WHICH MEETS STABILITY CRITERION OF THE SINK & SOURCE TERM
 =  12.18    (WHEN MIN. R.F.=1)  AT K=  17, I=   1, J=  91

 MAXIMUM STEPSIZE WHICH MEETS STABILITY CRITERION OF THE DISPERSION TERM
 =  4.369    (WHEN MIN. R.F.=1)  AT K=  17, I=   1, J=  90
     1 CALLS TO GCG PACKAGE FOR TRANSPORT TIME STEP 350 IN FLOW TIME STEP   1 STRESS PERIOD   1
     9 TOTAL ITERATIONS
  MAXIMUM CONCENTRATION CHANGES FOR EACH ITERATION:
  MAX. CHANGE LAYER,ROW,COL MAX. CHANGE LAYER,ROW,COL MAX. CHANGE LAYER,ROW,COL MAX. CHANGE LAYER,ROW,COL MAX. CHANGE LAYER,ROW,COL
 ------------------------------------------------------------------------------------------------------------------------------------
   0.4910E-01 ( 20,  1, 87)  0.3325E-02 ( 19,  1, 87)  0.2217E-02 ( 18,  1, 87)  0.2154E-03 ( 16,  1, 88)  0.1398E-03 ( 17,  1, 89)
   0.3058E-04 ( 16,  1, 90)  0.6308E-05 ( 21,  1, 78)  0.1098E-04 ( 21,  1, 78)  0.6731E-06 ( 16,  1, 89)
     1 CALLS TO GCG PACKAGE FOR TRANSPORT TIME STEP 350 IN FLOW TIME STEP   1 STRESS PERIOD   1
     8 TOTAL ITERATIONS
  MAXIMUM CONCENTRATION CHANGES FOR EACH ITERATION:
  MAX. CHANGE LAYER,ROW,COL MAX. CHANGE LAYER,ROW,COL MAX. CHANGE LAYER,ROW,COL MAX. CHANGE LAYER,ROW,COL MAX. CHANGE LAYER,ROW,COL
 ------------------------------------------------------------------------------------------------------------------------------------
   0.5665E-01 ( 19,  1, 88)  0.4704E-02 ( 19,  1, 87)  0.2324E-02 ( 18,  1, 87)  0.4092E-03 ( 18,  1, 87)  0.1408E-03 ( 17,  1, 89)
   0.3929E-04 ( 17,  1, 90)  0.6065E-05 ( 17,  1, 90)  0.5973E-06 ( 16,  1, 89)



 >>>>>>>>>>>>>>>>>>>>>>>>>>>>>>>>>>>>>>>>>>>>>>>>>>>>>>>FOR COMPONENT NO. 01<<<<<<<<<<<<<<<<<<<<<<<<<<<<<<<<<<<<<<<<<<<<<<<<<<<<<<<


                                            -------------------------------------------
                                                      TRANSPORT STEP NO.  350
                                            -------------------------------------------

 TOTAL ELAPSED TIME SINCE BEGINNING OF SIMULATION =   17500.00    D   
 .....................................................................

                     CUMMULATIVE MASS BUDGETS AT END OF TRANSPORT STEP  350, TIME STEP    1, STRESS PERIOD    1
                     ------------------------------------------------------------------------------------------

                                                             IN                           OUT
                                                      ----------------             ----------------
                               CONSTANT CONCENTRATION:    0.000000                    0.000000    
                                        CONSTANT HEAD:   0.6926863E+09              -0.6924900E+09
                                                WELLS:    0.000000                    0.000000    
                                             RECHARGE:    0.000000                    0.000000    
                               1ST/0TH ORDER REACTION:    0.000000                    0.000000    
                                MASS STORAGE (SOLUTE):   0.9688923E+08              -0.9708571E+08
                            ---------------------------------------------------------------------------
                                              [TOTAL]:   0.7895763E+09 KG           -0.7895764E+09 KG  

                                                          NET (IN - OUT):   -103.2450    
                                                   DISCREPANCY (PERCENT):  -0.1307600E-04



 >>>>>>>>>>>>>>>>>>>>>>>>>>>>>>>>>>>>>>>>>>>>>>>>>>>>>>>FOR COMPONENT NO. 02<<<<<<<<<<<<<<<<<<<<<<<<<<<<<<<<<<<<<<<<<<<<<<<<<<<<<<<


                                            -------------------------------------------
                                                      TRANSPORT STEP NO.  350
                                            -------------------------------------------

 TOTAL ELAPSED TIME SINCE BEGINNING OF SIMULATION =   17500.00    D   
 .....................................................................

                     CUMMULATIVE MASS BUDGETS AT END OF TRANSPORT STEP  350, TIME STEP    1, STRESS PERIOD    1
                     ------------------------------------------------------------------------------------------

                                                             IN                           OUT
                                                      ----------------             ----------------
                               CONSTANT CONCENTRATION:    0.000000                    0.000000    
                                        CONSTANT HEAD:    0.000000                  -0.8167676E+11
                                                WELLS:    0.000000                    0.000000    
                                             RECHARGE:    0.000000                    0.000000    
                               1ST/0TH ORDER REACTION:   0.2896250E+12                0.000000    
                                MASS STORAGE (SOLUTE):   0.2233832E+11              -0.2302866E+12
                            ---------------------------------------------------------------------------
                                              [TOTAL]:   0.3119637E+12 KG           -0.3119637E+12 KG  

                                                          NET (IN - OUT):   -21910.03    
                                                   DISCREPANCY (PERCENT):  -0.7023264E-05
 
 SOLVING FOR HEAD 


     2 CALLS TO PCG ROUTINE FOR TIME STEP   1 IN STRESS PERIOD    1
     9 TOTAL ITERATIONS

 MAXIMUM HEAD CHANGE FOR EACH ITERATION (1 INDICATES THE FIRST INNER ITERATION):

    HEAD CHANGE    HEAD CHANGE    HEAD CHANGE    HEAD CHANGE    HEAD CHANGE 
   LAYER,ROW,COL  LAYER,ROW,COL  LAYER,ROW,COL  LAYER,ROW,COL  LAYER,ROW,COL
 ---------------------------------------------------------------------------
  1  0.1331E-01  0 -0.3788E-02  0 -0.4066E-02  0  0.6890E-02  0  0.8841E-02
   ( 15,  1, 86)  ( 17,  1, 89)  (  6,  1, 12)  ( 11,  1, 49)  (  8,  1, 51)
  0  0.1573E-02  0 -0.1128E-02  0 -0.7551E-03  1  0.6754E-03
   ( 11,  1, 54)  ( 11,  1, 54)  ( 11,  1, 70)  ( 11,  1, 67)

 MAXIMUM RESIDUAL FOR EACH ITERATION (1 INDICATES THE FIRST INNER ITERATION):

    RESIDUAL       RESIDUAL       RESIDUAL       RESIDUAL       RESIDUAL    
   LAYER,ROW,COL  LAYER,ROW,COL  LAYER,ROW,COL  LAYER,ROW,COL  LAYER,ROW,COL
 ---------------------------------------------------------------------------
  1  0.1351E+06  0 -0.9570E+05  0 -0.8176E+05  0 -0.3247E+05  0  -6014.    
   ( 21,  1, 89)  ( 19,  1, 89)  ( 19,  1, 89)  ( 19,  1, 89)  ( 17,  1, 87)
  0   2824.      0   2453.      0   835.3      1   697.0    
   ( 22,  1, 87)  ( 22,  1, 87)  ( 22,  1, 87)  ( 22,  1, 87)


 FLOW MODEL IS TRANSIENT
 FLOW MODEL CONTAINS CONSTANT-HEAD CELLS


 MAXIMUM STEPSIZE DURING WHICH ANY PARTICLE CANNOT MOVE MORE THAN ONE CELL
 =  12.84    (WHEN MIN. R.F.=1)  AT K=  17, I=   1, J=  90

 MAXIMUM STEPSIZE WHICH MEETS STABILITY CRITERION OF THE ADVECTION TERM
 (FOR PURE FINITE-DIFFERENCE OPTION, MIXELM=0) 
 =  8.032    (WHEN MIN. R.F.=1)  AT K=  16, I=   1, J=  90


 TOTAL NUMBER OF POINT SOURCES/SINKS PRESENT IN THE FLOW MODEL =    30

 MAXIMUM STEPSIZE WHICH MEETS STABILITY CRITERION OF THE SINK & SOURCE TERM
 =  12.19    (WHEN MIN. R.F.=1)  AT K=  17, I=   1, J=  91

 MAXIMUM STEPSIZE WHICH MEETS STABILITY CRITERION OF THE DISPERSION TERM
 =  4.022    (WHEN MIN. R.F.=1)  AT K=  17, I=   1, J=  90
     1 CALLS TO GCG PACKAGE FOR TRANSPORT TIME STEP 351 IN FLOW TIME STEP   1 STRESS PERIOD   1
     8 TOTAL ITERATIONS
     1 CALLS TO GCG PACKAGE FOR TRANSPORT TIME STEP 351 IN FLOW TIME STEP   1 STRESS PERIOD   1
     8 TOTAL ITERATIONS
 
 SOLVING FOR HEAD 


     2 CALLS TO PCG ROUTINE FOR TIME STEP   1 IN STRESS PERIOD    1
     9 TOTAL ITERATIONS

 MAXIMUM HEAD CHANGE FOR EACH ITERATION (1 INDICATES THE FIRST INNER ITERATION):

    HEAD CHANGE    HEAD CHANGE    HEAD CHANGE    HEAD CHANGE    HEAD CHANGE 
   LAYER,ROW,COL  LAYER,ROW,COL  LAYER,ROW,COL  LAYER,ROW,COL  LAYER,ROW,COL
 ---------------------------------------------------------------------------
  1 -0.1345E-01  0  0.3684E-02  0  0.3395E-02  0  0.1039E-01  0 -0.1129E-01
   ( 15,  1, 86)  ( 17,  1, 89)  (  8,  1, 12)  ( 11,  1, 58)  ( 11,  1, 58)
  0  0.1515E-02  0  0.1578E-02  0  0.5710E-03  1 -0.5550E-03
   ( 11,  1, 58)  ( 11,  1, 70)  ( 11,  1, 42)  ( 11,  1, 70)

 MAXIMUM RESIDUAL FOR EACH ITERATION (1 INDICATES THE FIRST INNER ITERATION):

    RESIDUAL       RESIDUAL       RESIDUAL       RESIDUAL       RESIDUAL    
   LAYER,ROW,COL  LAYER,ROW,COL  LAYER,ROW,COL  LAYER,ROW,COL  LAYER,ROW,COL
 ---------------------------------------------------------------------------
  1 -0.1316E+06  0  0.9177E+05  0  0.9092E+05  0  0.2286E+05  0   5058.    
   ( 21,  1, 89)  ( 19,  1, 89)  ( 19,  1, 89)  ( 19,  1, 89)  ( 17,  1, 87)
  0  -2835.      0  -2262.      0  -800.1      1  -705.7    
   ( 22,  1, 87)  ( 22,  1, 87)  ( 22,  1, 87)  ( 22,  1, 87)


 FLOW MODEL IS TRANSIENT
 FLOW MODEL CONTAINS CONSTANT-HEAD CELLS


 MAXIMUM STEPSIZE DURING WHICH ANY PARTICLE CANNOT MOVE MORE THAN ONE CELL
 =  13.21    (WHEN MIN. R.F.=1)  AT K=  17, I=   1, J=  90

 MAXIMUM STEPSIZE WHICH MEETS STABILITY CRITERION OF THE ADVECTION TERM
 (FOR PURE FINITE-DIFFERENCE OPTION, MIXELM=0) 
 =  8.003    (WHEN MIN. R.F.=1)  AT K=  16, I=   1, J=  90


 TOTAL NUMBER OF POINT SOURCES/SINKS PRESENT IN THE FLOW MODEL =    30

 MAXIMUM STEPSIZE WHICH MEETS STABILITY CRITERION OF THE SINK & SOURCE TERM
 =  12.17    (WHEN MIN. R.F.=1)  AT K=  17, I=   1, J=  91

 MAXIMUM STEPSIZE WHICH MEETS STABILITY CRITERION OF THE DISPERSION TERM
 =  4.362    (WHEN MIN. R.F.=1)  AT K=  17, I=   1, J=  90
     1 CALLS TO GCG PACKAGE FOR TRANSPORT TIME STEP 352 IN FLOW TIME STEP   1 STRESS PERIOD   1
     9 TOTAL ITERATIONS
     1 CALLS TO GCG PACKAGE FOR TRANSPORT TIME STEP 352 IN FLOW TIME STEP   1 STRESS PERIOD   1
     8 TOTAL ITERATIONS
 
 SOLVING FOR HEAD 


     2 CALLS TO PCG ROUTINE FOR TIME STEP   1 IN STRESS PERIOD    1
     9 TOTAL ITERATIONS

 MAXIMUM HEAD CHANGE FOR EACH ITERATION (1 INDICATES THE FIRST INNER ITERATION):

    HEAD CHANGE    HEAD CHANGE    HEAD CHANGE    HEAD CHANGE    HEAD CHANGE 
   LAYER,ROW,COL  LAYER,ROW,COL  LAYER,ROW,COL  LAYER,ROW,COL  LAYER,ROW,COL
 ---------------------------------------------------------------------------
  1  0.1344E-01  0 -0.3689E-02  0 -0.2589E-02  0 -0.8031E-02  0  0.8705E-02
   ( 15,  1, 86)  ( 17,  1, 89)  (  7,  1, 12)  (  8,  1, 51)  (  9,  1, 51)
  0  0.1000E-02  0 -0.1090E-02  0 -0.9602E-03  1  0.8515E-03
   ( 11,  1, 54)  ( 11,  1, 55)  ( 11,  1, 70)  ( 11,  1, 70)

 MAXIMUM RESIDUAL FOR EACH ITERATION (1 INDICATES THE FIRST INNER ITERATION):

    RESIDUAL       RESIDUAL       RESIDUAL       RESIDUAL       RESIDUAL    
   LAYER,ROW,COL  LAYER,ROW,COL  LAYER,ROW,COL  LAYER,ROW,COL  LAYER,ROW,COL
 ---------------------------------------------------------------------------
  1  0.1309E+06  0 -0.9157E+05  0 -0.8807E+05  0 -0.3493E+05  0  -5982.    
   ( 21,  1, 89)  ( 19,  1, 89)  ( 19,  1, 89)  ( 19,  1, 89)  ( 17,  1, 87)
  0   2900.      0   2277.      0   819.7      1   691.3    
   ( 22,  1, 87)  ( 22,  1, 87)  ( 22,  1, 87)  ( 22,  1, 87)


 FLOW MODEL IS TRANSIENT
 FLOW MODEL CONTAINS CONSTANT-HEAD CELLS


 MAXIMUM STEPSIZE DURING WHICH ANY PARTICLE CANNOT MOVE MORE THAN ONE CELL
 =  12.87    (WHEN MIN. R.F.=1)  AT K=  17, I=   1, J=  90

 MAXIMUM STEPSIZE WHICH MEETS STABILITY CRITERION OF THE ADVECTION TERM
 (FOR PURE FINITE-DIFFERENCE OPTION, MIXELM=0) 
 =  8.037    (WHEN MIN. R.F.=1)  AT K=  16, I=   1, J=  90


 TOTAL NUMBER OF POINT SOURCES/SINKS PRESENT IN THE FLOW MODEL =    30

 MAXIMUM STEPSIZE WHICH MEETS STABILITY CRITERION OF THE SINK & SOURCE TERM
 =  12.21    (WHEN MIN. R.F.=1)  AT K=  17, I=   1, J=  91

 MAXIMUM STEPSIZE WHICH MEETS STABILITY CRITERION OF THE DISPERSION TERM
 =  4.035    (WHEN MIN. R.F.=1)  AT K=  17, I=   1, J=  90
     1 CALLS TO GCG PACKAGE FOR TRANSPORT TIME STEP 353 IN FLOW TIME STEP   1 STRESS PERIOD   1
     8 TOTAL ITERATIONS
     1 CALLS TO GCG PACKAGE FOR TRANSPORT TIME STEP 353 IN FLOW TIME STEP   1 STRESS PERIOD   1
     8 TOTAL ITERATIONS
 
 SOLVING FOR HEAD 


     2 CALLS TO PCG ROUTINE FOR TIME STEP   1 IN STRESS PERIOD    1
     9 TOTAL ITERATIONS

 MAXIMUM HEAD CHANGE FOR EACH ITERATION (1 INDICATES THE FIRST INNER ITERATION):

    HEAD CHANGE    HEAD CHANGE    HEAD CHANGE    HEAD CHANGE    HEAD CHANGE 
   LAYER,ROW,COL  LAYER,ROW,COL  LAYER,ROW,COL  LAYER,ROW,COL  LAYER,ROW,COL
 ---------------------------------------------------------------------------
  1 -0.1347E-01  0  0.3641E-02  0  0.2459E-02  0  0.1212E-01  0 -0.1308E-01
   ( 15,  1, 86)  ( 17,  1, 89)  (  8,  1, 12)  ( 11,  1, 58)  ( 11,  1, 58)
  0  0.1868E-02  0  0.1086E-02  0  0.7640E-03  1 -0.7354E-03
   ( 11,  1, 57)  ( 11,  1, 70)  ( 11,  1, 50)  ( 11,  1, 70)

 MAXIMUM RESIDUAL FOR EACH ITERATION (1 INDICATES THE FIRST INNER ITERATION):

    RESIDUAL       RESIDUAL       RESIDUAL       RESIDUAL       RESIDUAL    
   LAYER,ROW,COL  LAYER,ROW,COL  LAYER,ROW,COL  LAYER,ROW,COL  LAYER,ROW,COL
 ---------------------------------------------------------------------------
  1 -0.1327E+06  0  0.9353E+05  0  0.9221E+05  0  0.2470E+05  0   5135.    
   ( 21,  1, 89)  ( 19,  1, 89)  ( 19,  1, 89)  ( 19,  1, 89)  ( 17,  1, 87)
  0  -2830.      0  -2275.      0  -798.8      1  -675.7    
   ( 22,  1, 87)  ( 22,  1, 87)  ( 22,  1, 87)  ( 22,  1, 87)


 FLOW MODEL IS TRANSIENT
 FLOW MODEL CONTAINS CONSTANT-HEAD CELLS


 MAXIMUM STEPSIZE DURING WHICH ANY PARTICLE CANNOT MOVE MORE THAN ONE CELL
 =  13.21    (WHEN MIN. R.F.=1)  AT K=  17, I=   1, J=  90

 MAXIMUM STEPSIZE WHICH MEETS STABILITY CRITERION OF THE ADVECTION TERM
 (FOR PURE FINITE-DIFFERENCE OPTION, MIXELM=0) 
 =  8.001    (WHEN MIN. R.F.=1)  AT K=  16, I=   1, J=  90


 TOTAL NUMBER OF POINT SOURCES/SINKS PRESENT IN THE FLOW MODEL =    30

 MAXIMUM STEPSIZE WHICH MEETS STABILITY CRITERION OF THE SINK & SOURCE TERM
 =  12.17    (WHEN MIN. R.F.=1)  AT K=  17, I=   1, J=  91

 MAXIMUM STEPSIZE WHICH MEETS STABILITY CRITERION OF THE DISPERSION TERM
 =  4.356    (WHEN MIN. R.F.=1)  AT K=  17, I=   1, J=  90
     1 CALLS TO GCG PACKAGE FOR TRANSPORT TIME STEP 354 IN FLOW TIME STEP   1 STRESS PERIOD   1
     9 TOTAL ITERATIONS
     1 CALLS TO GCG PACKAGE FOR TRANSPORT TIME STEP 354 IN FLOW TIME STEP   1 STRESS PERIOD   1
     8 TOTAL ITERATIONS
 
 SOLVING FOR HEAD 


     2 CALLS TO PCG ROUTINE FOR TIME STEP   1 IN STRESS PERIOD    1
     9 TOTAL ITERATIONS

 MAXIMUM HEAD CHANGE FOR EACH ITERATION (1 INDICATES THE FIRST INNER ITERATION):

    HEAD CHANGE    HEAD CHANGE    HEAD CHANGE    HEAD CHANGE    HEAD CHANGE 
   LAYER,ROW,COL  LAYER,ROW,COL  LAYER,ROW,COL  LAYER,ROW,COL  LAYER,ROW,COL
 ---------------------------------------------------------------------------
  1  0.1350E-01  0 -0.3617E-02  0 -0.2366E-02  0  0.8741E-02  0  0.8809E-02
   ( 15,  1, 86)  ( 17,  1, 89)  (  7,  1, 12)  ( 11,  1, 49)  (  8,  1, 52)
  0  0.1230E-02  0 -0.1065E-02  0 -0.8417E-03  1  0.5274E-03
   ( 11,  1, 42)  ( 11,  1, 64)  ( 11,  1, 49)  ( 11,  1, 66)

 MAXIMUM RESIDUAL FOR EACH ITERATION (1 INDICATES THE FIRST INNER ITERATION):

    RESIDUAL       RESIDUAL       RESIDUAL       RESIDUAL       RESIDUAL    
   LAYER,ROW,COL  LAYER,ROW,COL  LAYER,ROW,COL  LAYER,ROW,COL  LAYER,ROW,COL
 ---------------------------------------------------------------------------
  1  0.1312E+06  0 -0.9167E+05  0 -0.8928E+05  0 -0.3785E+05  0  -5950.    
   ( 21,  1, 89)  ( 19,  1, 89)  ( 19,  1, 89)  ( 19,  1, 89)  ( 17,  1, 87)
  0   2899.      0   2498.      0   845.2      1   732.9    
   ( 22,  1, 87)  ( 22,  1, 87)  ( 22,  1, 87)  ( 22,  1, 87)


 FLOW MODEL IS TRANSIENT
 FLOW MODEL CONTAINS CONSTANT-HEAD CELLS


 MAXIMUM STEPSIZE DURING WHICH ANY PARTICLE CANNOT MOVE MORE THAN ONE CELL
 =  12.86    (WHEN MIN. R.F.=1)  AT K=  17, I=   1, J=  90

 MAXIMUM STEPSIZE WHICH MEETS STABILITY CRITERION OF THE ADVECTION TERM
 (FOR PURE FINITE-DIFFERENCE OPTION, MIXELM=0) 
 =  8.034    (WHEN MIN. R.F.=1)  AT K=  16, I=   1, J=  90


 TOTAL NUMBER OF POINT SOURCES/SINKS PRESENT IN THE FLOW MODEL =    30

 MAXIMUM STEPSIZE WHICH MEETS STABILITY CRITERION OF THE SINK & SOURCE TERM
 =  12.20    (WHEN MIN. R.F.=1)  AT K=  17, I=   1, J=  91

 MAXIMUM STEPSIZE WHICH MEETS STABILITY CRITERION OF THE DISPERSION TERM
 =  4.034    (WHEN MIN. R.F.=1)  AT K=  17, I=   1, J=  90
     1 CALLS TO GCG PACKAGE FOR TRANSPORT TIME STEP 355 IN FLOW TIME STEP   1 STRESS PERIOD   1
     8 TOTAL ITERATIONS
  MAXIMUM CONCENTRATION CHANGES FOR EACH ITERATION:
  MAX. CHANGE LAYER,ROW,COL MAX. CHANGE LAYER,ROW,COL MAX. CHANGE LAYER,ROW,COL MAX. CHANGE LAYER,ROW,COL MAX. CHANGE LAYER,ROW,COL
 ------------------------------------------------------------------------------------------------------------------------------------
   0.5255E-01 ( 20,  1, 87)  0.4150E-02 ( 19,  1, 89)  0.2147E-02 ( 18,  1, 86)  0.4672E-03 ( 20,  1, 89)  0.9495E-04 ( 16,  1, 89)
   0.1972E-04 ( 20,  1, 89)  0.1707E-04 ( 16,  1, 90)  0.7529E-06 ( 17,  1, 90)
     1 CALLS TO GCG PACKAGE FOR TRANSPORT TIME STEP 355 IN FLOW TIME STEP   1 STRESS PERIOD   1
     8 TOTAL ITERATIONS
  MAXIMUM CONCENTRATION CHANGES FOR EACH ITERATION:
  MAX. CHANGE LAYER,ROW,COL MAX. CHANGE LAYER,ROW,COL MAX. CHANGE LAYER,ROW,COL MAX. CHANGE LAYER,ROW,COL MAX. CHANGE LAYER,ROW,COL
 ------------------------------------------------------------------------------------------------------------------------------------
   0.6128E-01 ( 20,  1, 87)  0.4693E-02 ( 19,  1, 89)  0.2060E-02 ( 18,  1, 86)  0.5628E-03 ( 19,  1, 89)  0.1163E-03 ( 16,  1, 89)
   0.2764E-04 ( 23,  1, 87)  0.1386E-04 ( 17,  1, 90)  0.9221E-06 ( 17,  1, 90)
 
 SOLVING FOR HEAD 


     2 CALLS TO PCG ROUTINE FOR TIME STEP   1 IN STRESS PERIOD    1
     9 TOTAL ITERATIONS

 MAXIMUM HEAD CHANGE FOR EACH ITERATION (1 INDICATES THE FIRST INNER ITERATION):

    HEAD CHANGE    HEAD CHANGE    HEAD CHANGE    HEAD CHANGE    HEAD CHANGE 
   LAYER,ROW,COL  LAYER,ROW,COL  LAYER,ROW,COL  LAYER,ROW,COL  LAYER,ROW,COL
 ---------------------------------------------------------------------------
  1 -0.1341E-01  0  0.3615E-02  0  0.2344E-02  0 -0.8774E-02  0  0.9540E-02
   ( 15,  1, 86)  ( 17,  1, 89)  (  8,  1, 12)  ( 11,  1, 51)  ( 11,  1, 50)
  0 -0.1953E-02  0  0.1123E-02  0  0.6907E-03  1 -0.7708E-03
   ( 11,  1, 50)  ( 11,  1, 59)  ( 11,  1, 70)  ( 11,  1, 70)

 MAXIMUM RESIDUAL FOR EACH ITERATION (1 INDICATES THE FIRST INNER ITERATION):

    RESIDUAL       RESIDUAL       RESIDUAL       RESIDUAL       RESIDUAL    
   LAYER,ROW,COL  LAYER,ROW,COL  LAYER,ROW,COL  LAYER,ROW,COL  LAYER,ROW,COL
 ---------------------------------------------------------------------------
  1 -0.1317E+06  0  0.9277E+05  0  0.9107E+05  0  0.2370E+05  0   5086.    
   ( 21,  1, 89)  ( 19,  1, 89)  ( 19,  1, 89)  ( 19,  1, 89)  ( 17,  1, 87)
  0  -2838.      0  -2389.      0  -894.9      1  -768.5    
   ( 22,  1, 87)  ( 22,  1, 87)  ( 22,  1, 87)  ( 22,  1, 87)


 FLOW MODEL IS TRANSIENT
 FLOW MODEL CONTAINS CONSTANT-HEAD CELLS


 MAXIMUM STEPSIZE DURING WHICH ANY PARTICLE CANNOT MOVE MORE THAN ONE CELL
 =  13.20    (WHEN MIN. R.F.=1)  AT K=  17, I=   1, J=  90

 MAXIMUM STEPSIZE WHICH MEETS STABILITY CRITERION OF THE ADVECTION TERM
 (FOR PURE FINITE-DIFFERENCE OPTION, MIXELM=0) 
 =  7.999    (WHEN MIN. R.F.=1)  AT K=  16, I=   1, J=  90


 TOTAL NUMBER OF POINT SOURCES/SINKS PRESENT IN THE FLOW MODEL =    30

 MAXIMUM STEPSIZE WHICH MEETS STABILITY CRITERION OF THE SINK & SOURCE TERM
 =  12.16    (WHEN MIN. R.F.=1)  AT K=  17, I=   1, J=  91

 MAXIMUM STEPSIZE WHICH MEETS STABILITY CRITERION OF THE DISPERSION TERM
 =  4.350    (WHEN MIN. R.F.=1)  AT K=  17, I=   1, J=  90
     1 CALLS TO GCG PACKAGE FOR TRANSPORT TIME STEP 356 IN FLOW TIME STEP   1 STRESS PERIOD   1
     9 TOTAL ITERATIONS
     1 CALLS TO GCG PACKAGE FOR TRANSPORT TIME STEP 356 IN FLOW TIME STEP   1 STRESS PERIOD   1
     8 TOTAL ITERATIONS
 
 SOLVING FOR HEAD 


     2 CALLS TO PCG ROUTINE FOR TIME STEP   1 IN STRESS PERIOD    1
     8 TOTAL ITERATIONS

 MAXIMUM HEAD CHANGE FOR EACH ITERATION (1 INDICATES THE FIRST INNER ITERATION):

    HEAD CHANGE    HEAD CHANGE    HEAD CHANGE    HEAD CHANGE    HEAD CHANGE 
   LAYER,ROW,COL  LAYER,ROW,COL  LAYER,ROW,COL  LAYER,ROW,COL  LAYER,ROW,COL
 ---------------------------------------------------------------------------
  1  0.1351E-01  0 -0.3624E-02  0 -0.2313E-02  0 -0.8942E-02  0  0.8860E-02
   ( 15,  1, 86)  ( 17,  1, 89)  (  7,  1, 12)  (  8,  1, 52)  (  9,  1, 52)
  0  0.1300E-02  0 -0.9999E-03  1 -0.8064E-03
   ( 11,  1, 55)  ( 11,  1, 64)  ( 11,  1, 49)

 MAXIMUM RESIDUAL FOR EACH ITERATION (1 INDICATES THE FIRST INNER ITERATION):

    RESIDUAL       RESIDUAL       RESIDUAL       RESIDUAL       RESIDUAL    
   LAYER,ROW,COL  LAYER,ROW,COL  LAYER,ROW,COL  LAYER,ROW,COL  LAYER,ROW,COL
 ---------------------------------------------------------------------------
  1  0.1309E+06  0 -0.9164E+05  0 -0.9005E+05  0 -0.3795E+05  0  -5906.    
   ( 21,  1, 89)  ( 19,  1, 89)  ( 19,  1, 89)  ( 19,  1, 89)  ( 17,  1, 87)
  0   2887.      0   2493.      1   2048.    
   ( 22,  1, 87)  ( 22,  1, 87)  ( 22,  1, 87)


 FLOW MODEL IS TRANSIENT
 FLOW MODEL CONTAINS CONSTANT-HEAD CELLS


 MAXIMUM STEPSIZE DURING WHICH ANY PARTICLE CANNOT MOVE MORE THAN ONE CELL
 =  12.85    (WHEN MIN. R.F.=1)  AT K=  17, I=   1, J=  90

 MAXIMUM STEPSIZE WHICH MEETS STABILITY CRITERION OF THE ADVECTION TERM
 (FOR PURE FINITE-DIFFERENCE OPTION, MIXELM=0) 
 =  8.030    (WHEN MIN. R.F.=1)  AT K=  16, I=   1, J=  90


 TOTAL NUMBER OF POINT SOURCES/SINKS PRESENT IN THE FLOW MODEL =    30

 MAXIMUM STEPSIZE WHICH MEETS STABILITY CRITERION OF THE SINK & SOURCE TERM
 =  12.20    (WHEN MIN. R.F.=1)  AT K=  17, I=   1, J=  91

 MAXIMUM STEPSIZE WHICH MEETS STABILITY CRITERION OF THE DISPERSION TERM
 =  4.031    (WHEN MIN. R.F.=1)  AT K=  17, I=   1, J=  90
     1 CALLS TO GCG PACKAGE FOR TRANSPORT TIME STEP 357 IN FLOW TIME STEP   1 STRESS PERIOD   1
     8 TOTAL ITERATIONS
     1 CALLS TO GCG PACKAGE FOR TRANSPORT TIME STEP 357 IN FLOW TIME STEP   1 STRESS PERIOD   1
     8 TOTAL ITERATIONS
 
 SOLVING FOR HEAD 


     2 CALLS TO PCG ROUTINE FOR TIME STEP   1 IN STRESS PERIOD    1
     9 TOTAL ITERATIONS

 MAXIMUM HEAD CHANGE FOR EACH ITERATION (1 INDICATES THE FIRST INNER ITERATION):

    HEAD CHANGE    HEAD CHANGE    HEAD CHANGE    HEAD CHANGE    HEAD CHANGE 
   LAYER,ROW,COL  LAYER,ROW,COL  LAYER,ROW,COL  LAYER,ROW,COL  LAYER,ROW,COL
 ---------------------------------------------------------------------------
  1 -0.1371E-01  0 -0.6774E-02  0  0.3787E-02  0  0.1430E-01  0 -0.1064E-01
   ( 15,  1, 86)  ( 11,  1, 49)  (  8,  1, 12)  ( 11,  1, 49)  ( 11,  1, 49)
  0  0.3293E-02  0  0.1159E-02  0  0.8827E-03  1 -0.6777E-03
   ( 11,  1, 65)  ( 11,  1, 49)  ( 11,  1, 60)  ( 11,  1, 60)

 MAXIMUM RESIDUAL FOR EACH ITERATION (1 INDICATES THE FIRST INNER ITERATION):

    RESIDUAL       RESIDUAL       RESIDUAL       RESIDUAL       RESIDUAL    
   LAYER,ROW,COL  LAYER,ROW,COL  LAYER,ROW,COL  LAYER,ROW,COL  LAYER,ROW,COL
 ---------------------------------------------------------------------------
  1 -0.1334E+06  0  0.9435E+05  0  0.9354E+05  0  0.5850E+05  0   5468.    
   ( 21,  1, 89)  ( 19,  1, 89)  ( 19,  1, 89)  ( 19,  1, 89)  ( 17,  1, 87)
  0  -2742.      0  -2606.      0  -1859.      1  -1618.    
   ( 22,  1, 87)  ( 22,  1, 87)  ( 22,  1, 87)  ( 22,  1, 87)


 FLOW MODEL IS TRANSIENT
 FLOW MODEL CONTAINS CONSTANT-HEAD CELLS


 MAXIMUM STEPSIZE DURING WHICH ANY PARTICLE CANNOT MOVE MORE THAN ONE CELL
 =  13.16    (WHEN MIN. R.F.=1)  AT K=  17, I=   1, J=  90

 MAXIMUM STEPSIZE WHICH MEETS STABILITY CRITERION OF THE ADVECTION TERM
 (FOR PURE FINITE-DIFFERENCE OPTION, MIXELM=0) 
 =  7.979    (WHEN MIN. R.F.=1)  AT K=  16, I=   1, J=  90


 TOTAL NUMBER OF POINT SOURCES/SINKS PRESENT IN THE FLOW MODEL =    30

 MAXIMUM STEPSIZE WHICH MEETS STABILITY CRITERION OF THE SINK & SOURCE TERM
 =  12.09    (WHEN MIN. R.F.=1)  AT K=  17, I=   1, J=  91

 MAXIMUM STEPSIZE WHICH MEETS STABILITY CRITERION OF THE DISPERSION TERM
 =  4.333    (WHEN MIN. R.F.=1)  AT K=  17, I=   1, J=  90
     1 CALLS TO GCG PACKAGE FOR TRANSPORT TIME STEP 358 IN FLOW TIME STEP   1 STRESS PERIOD   1
     8 TOTAL ITERATIONS
     1 CALLS TO GCG PACKAGE FOR TRANSPORT TIME STEP 358 IN FLOW TIME STEP   1 STRESS PERIOD   1
     8 TOTAL ITERATIONS
 
 SOLVING FOR HEAD 


     2 CALLS TO PCG ROUTINE FOR TIME STEP   1 IN STRESS PERIOD    1
     9 TOTAL ITERATIONS

 MAXIMUM HEAD CHANGE FOR EACH ITERATION (1 INDICATES THE FIRST INNER ITERATION):

    HEAD CHANGE    HEAD CHANGE    HEAD CHANGE    HEAD CHANGE    HEAD CHANGE 
   LAYER,ROW,COL  LAYER,ROW,COL  LAYER,ROW,COL  LAYER,ROW,COL  LAYER,ROW,COL
 ---------------------------------------------------------------------------
  1  0.1381E-01  0 -0.4174E-02  0 -0.4123E-02  0  0.1037E-01  0 -0.8621E-02
   ( 15,  1, 86)  ( 17,  1, 89)  (  8,  1, 12)  ( 11,  1, 60)  (  7,  1, 54)
  0  0.1885E-02  0  0.1067E-02  0 -0.7134E-03  1 -0.6300E-03
   ( 11,  1, 65)  ( 11,  1, 59)  ( 11,  1, 64)  ( 11,  1, 49)

 MAXIMUM RESIDUAL FOR EACH ITERATION (1 INDICATES THE FIRST INNER ITERATION):

    RESIDUAL       RESIDUAL       RESIDUAL       RESIDUAL       RESIDUAL    
   LAYER,ROW,COL  LAYER,ROW,COL  LAYER,ROW,COL  LAYER,ROW,COL  LAYER,ROW,COL
 ---------------------------------------------------------------------------
  1  0.1336E+06  0 -0.9563E+05  0 -0.9488E+05  0 -0.3473E+05  0   5650.    
   ( 21,  1, 89)  ( 19,  1, 89)  ( 19,  1, 89)  ( 19,  1, 89)  ( 17,  1, 88)
  0   2736.      0   2521.      0   1135.      1   1003.    
   ( 22,  1, 87)  ( 22,  1, 87)  ( 22,  1, 87)  ( 22,  1, 87)


 FLOW MODEL IS TRANSIENT
 FLOW MODEL CONTAINS CONSTANT-HEAD CELLS


 MAXIMUM STEPSIZE DURING WHICH ANY PARTICLE CANNOT MOVE MORE THAN ONE CELL
 =  12.86    (WHEN MIN. R.F.=1)  AT K=  17, I=   1, J=  90

 MAXIMUM STEPSIZE WHICH MEETS STABILITY CRITERION OF THE ADVECTION TERM
 (FOR PURE FINITE-DIFFERENCE OPTION, MIXELM=0) 
 =  8.037    (WHEN MIN. R.F.=1)  AT K=  16, I=   1, J=  90


 TOTAL NUMBER OF POINT SOURCES/SINKS PRESENT IN THE FLOW MODEL =    30

 MAXIMUM STEPSIZE WHICH MEETS STABILITY CRITERION OF THE SINK & SOURCE TERM
 =  12.20    (WHEN MIN. R.F.=1)  AT K=  17, I=   1, J=  91

 MAXIMUM STEPSIZE WHICH MEETS STABILITY CRITERION OF THE DISPERSION TERM
 =  4.025    (WHEN MIN. R.F.=1)  AT K=  17, I=   1, J=  90
     1 CALLS TO GCG PACKAGE FOR TRANSPORT TIME STEP 359 IN FLOW TIME STEP   1 STRESS PERIOD   1
     8 TOTAL ITERATIONS
     1 CALLS TO GCG PACKAGE FOR TRANSPORT TIME STEP 359 IN FLOW TIME STEP   1 STRESS PERIOD   1
     8 TOTAL ITERATIONS
 
 SOLVING FOR HEAD 


     2 CALLS TO PCG ROUTINE FOR TIME STEP   1 IN STRESS PERIOD    1
     9 TOTAL ITERATIONS

 MAXIMUM HEAD CHANGE FOR EACH ITERATION (1 INDICATES THE FIRST INNER ITERATION):

    HEAD CHANGE    HEAD CHANGE    HEAD CHANGE    HEAD CHANGE    HEAD CHANGE 
   LAYER,ROW,COL  LAYER,ROW,COL  LAYER,ROW,COL  LAYER,ROW,COL  LAYER,ROW,COL
 ---------------------------------------------------------------------------
  1 -0.1350E-01  0  0.3872E-02  0  0.3182E-02  0  0.8176E-02  0 -0.8391E-02
   ( 15,  1, 86)  ( 17,  1, 89)  (  8,  1, 12)  ( 11,  1, 50)  ( 11,  1, 50)
  0 -0.1646E-02  0  0.1170E-02  0  0.8641E-03  1 -0.9013E-03
   ( 11,  1, 36)  ( 11,  1, 49)  ( 11,  1, 70)  ( 11,  1, 70)

 MAXIMUM RESIDUAL FOR EACH ITERATION (1 INDICATES THE FIRST INNER ITERATION):

    RESIDUAL       RESIDUAL       RESIDUAL       RESIDUAL       RESIDUAL    
   LAYER,ROW,COL  LAYER,ROW,COL  LAYER,ROW,COL  LAYER,ROW,COL  LAYER,ROW,COL
 ---------------------------------------------------------------------------
  1 -0.1303E+06  0  0.9134E+05  0  0.9045E+05  0  0.2196E+05  0   5308.    
   ( 21,  1, 89)  ( 19,  1, 89)  ( 19,  1, 89)  ( 19,  1, 89)  ( 17,  1, 87)
  0  -2877.      0  -2571.      0  -931.7      1  -813.2    
   ( 22,  1, 87)  ( 22,  1, 87)  ( 22,  1, 87)  ( 22,  1, 87)


 FLOW MODEL IS TRANSIENT
 FLOW MODEL CONTAINS CONSTANT-HEAD CELLS


 MAXIMUM STEPSIZE DURING WHICH ANY PARTICLE CANNOT MOVE MORE THAN ONE CELL
 =  13.23    (WHEN MIN. R.F.=1)  AT K=  17, I=   1, J=  90

 MAXIMUM STEPSIZE WHICH MEETS STABILITY CRITERION OF THE ADVECTION TERM
 (FOR PURE FINITE-DIFFERENCE OPTION, MIXELM=0) 
 =  8.005    (WHEN MIN. R.F.=1)  AT K=  16, I=   1, J=  90


 TOTAL NUMBER OF POINT SOURCES/SINKS PRESENT IN THE FLOW MODEL =    30

 MAXIMUM STEPSIZE WHICH MEETS STABILITY CRITERION OF THE SINK & SOURCE TERM
 =  12.17    (WHEN MIN. R.F.=1)  AT K=  17, I=   1, J=  91

 MAXIMUM STEPSIZE WHICH MEETS STABILITY CRITERION OF THE DISPERSION TERM
 =  4.370    (WHEN MIN. R.F.=1)  AT K=  17, I=   1, J=  90
     1 CALLS TO GCG PACKAGE FOR TRANSPORT TIME STEP 360 IN FLOW TIME STEP   1 STRESS PERIOD   1
     9 TOTAL ITERATIONS
  MAXIMUM CONCENTRATION CHANGES FOR EACH ITERATION:
  MAX. CHANGE LAYER,ROW,COL MAX. CHANGE LAYER,ROW,COL MAX. CHANGE LAYER,ROW,COL MAX. CHANGE LAYER,ROW,COL MAX. CHANGE LAYER,ROW,COL
 ------------------------------------------------------------------------------------------------------------------------------------
   0.4915E-01 ( 20,  1, 87)  0.3314E-02 ( 19,  1, 87)  0.2236E-02 ( 18,  1, 87)  0.2168E-03 ( 16,  1, 88)  0.1416E-03 ( 16,  1, 89)
   0.3026E-04 ( 16,  1, 90)  0.3465E-04 ( 21,  1, 78)  0.3882E-04 ( 21,  1, 78)  0.8148E-06 ( 16,  1, 89)
     1 CALLS TO GCG PACKAGE FOR TRANSPORT TIME STEP 360 IN FLOW TIME STEP   1 STRESS PERIOD   1
     8 TOTAL ITERATIONS
  MAXIMUM CONCENTRATION CHANGES FOR EACH ITERATION:
  MAX. CHANGE LAYER,ROW,COL MAX. CHANGE LAYER,ROW,COL MAX. CHANGE LAYER,ROW,COL MAX. CHANGE LAYER,ROW,COL MAX. CHANGE LAYER,ROW,COL
 ------------------------------------------------------------------------------------------------------------------------------------
   0.5650E-01 ( 19,  1, 88)  0.4643E-02 ( 19,  1, 87)  0.2356E-02 ( 18,  1, 87)  0.3961E-03 ( 18,  1, 87)  0.1374E-03 ( 17,  1, 89)
   0.3935E-04 ( 17,  1, 90)  0.6192E-05 ( 17,  1, 90)  0.6289E-06 ( 16,  1, 89)



 >>>>>>>>>>>>>>>>>>>>>>>>>>>>>>>>>>>>>>>>>>>>>>>>>>>>>>>FOR COMPONENT NO. 01<<<<<<<<<<<<<<<<<<<<<<<<<<<<<<<<<<<<<<<<<<<<<<<<<<<<<<<


                                            -------------------------------------------
                                                      TRANSPORT STEP NO.  360
                                            -------------------------------------------

 TOTAL ELAPSED TIME SINCE BEGINNING OF SIMULATION =   18000.00    D   
 .....................................................................

                     CUMMULATIVE MASS BUDGETS AT END OF TRANSPORT STEP  360, TIME STEP    1, STRESS PERIOD    1
                     ------------------------------------------------------------------------------------------

                                                             IN                           OUT
                                                      ----------------             ----------------
                               CONSTANT CONCENTRATION:    0.000000                    0.000000    
                                        CONSTANT HEAD:   0.7124716E+09              -0.7122737E+09
                                                WELLS:    0.000000                    0.000000    
                                             RECHARGE:    0.000000                    0.000000    
                               1ST/0TH ORDER REACTION:    0.000000                    0.000000    
                                MASS STORAGE (SOLUTE):   0.9964377E+08              -0.9984184E+08
                            ---------------------------------------------------------------------------
                                              [TOTAL]:   0.8121162E+09 KG           -0.8121163E+09 KG  

                                                          NET (IN - OUT):   -98.95257    
                                                   DISCREPANCY (PERCENT):  -0.1218453E-04



 >>>>>>>>>>>>>>>>>>>>>>>>>>>>>>>>>>>>>>>>>>>>>>>>>>>>>>>FOR COMPONENT NO. 02<<<<<<<<<<<<<<<<<<<<<<<<<<<<<<<<<<<<<<<<<<<<<<<<<<<<<<<


                                            -------------------------------------------
                                                      TRANSPORT STEP NO.  360
                                            -------------------------------------------

 TOTAL ELAPSED TIME SINCE BEGINNING OF SIMULATION =   18000.00    D   
 .....................................................................

                     CUMMULATIVE MASS BUDGETS AT END OF TRANSPORT STEP  360, TIME STEP    1, STRESS PERIOD    1
                     ------------------------------------------------------------------------------------------

                                                             IN                           OUT
                                                      ----------------             ----------------
                               CONSTANT CONCENTRATION:    0.000000                    0.000000    
                                        CONSTANT HEAD:    0.000000                  -0.8571042E+11
                                                WELLS:    0.000000                    0.000000    
                                             RECHARGE:    0.000000                    0.000000    
                               1ST/0TH ORDER REACTION:   0.2979000E+12                0.000000    
                                MASS STORAGE (SOLUTE):   0.2371125E+11              -0.2359009E+12
                            ---------------------------------------------------------------------------
                                              [TOTAL]:   0.3216116E+12 KG           -0.3216117E+12 KG  

                                                          NET (IN - OUT):   -23711.96    
                                                   DISCREPANCY (PERCENT):  -0.7372856E-05
 
 SOLVING FOR HEAD 


     2 CALLS TO PCG ROUTINE FOR TIME STEP   1 IN STRESS PERIOD    1
     9 TOTAL ITERATIONS

 MAXIMUM HEAD CHANGE FOR EACH ITERATION (1 INDICATES THE FIRST INNER ITERATION):

    HEAD CHANGE    HEAD CHANGE    HEAD CHANGE    HEAD CHANGE    HEAD CHANGE 
   LAYER,ROW,COL  LAYER,ROW,COL  LAYER,ROW,COL  LAYER,ROW,COL  LAYER,ROW,COL
 ---------------------------------------------------------------------------
  1  0.1335E-01  0 -0.3796E-02  0 -0.2412E-02  0 -0.1103E-01  0  0.1102E-01
   ( 15,  1, 86)  ( 17,  1, 89)  (  8,  1, 12)  ( 11,  1, 53)  ( 11,  1, 53)
  0  0.2231E-02  0 -0.1174E-02  0 -0.8310E-03  1  0.7665E-03
   ( 11,  1, 65)  ( 11,  1, 54)  ( 11,  1, 65)  ( 11,  1, 65)

 MAXIMUM RESIDUAL FOR EACH ITERATION (1 INDICATES THE FIRST INNER ITERATION):

    RESIDUAL       RESIDUAL       RESIDUAL       RESIDUAL       RESIDUAL    
   LAYER,ROW,COL  LAYER,ROW,COL  LAYER,ROW,COL  LAYER,ROW,COL  LAYER,ROW,COL
 ---------------------------------------------------------------------------
  1  0.1333E+06  0 -0.9386E+05  0 -0.9166E+05  0 -0.2768E+05  0  -5671.    
   ( 21,  1, 89)  ( 19,  1, 89)  ( 19,  1, 89)  ( 19,  1, 89)  ( 17,  1, 87)
  0   2833.      0   2555.      0   1143.      1   999.1    
   ( 22,  1, 87)  ( 22,  1, 87)  ( 22,  1, 87)  ( 22,  1, 87)


 FLOW MODEL IS TRANSIENT
 FLOW MODEL CONTAINS CONSTANT-HEAD CELLS


 MAXIMUM STEPSIZE DURING WHICH ANY PARTICLE CANNOT MOVE MORE THAN ONE CELL
 =  12.86    (WHEN MIN. R.F.=1)  AT K=  17, I=   1, J=  90

 MAXIMUM STEPSIZE WHICH MEETS STABILITY CRITERION OF THE ADVECTION TERM
 (FOR PURE FINITE-DIFFERENCE OPTION, MIXELM=0) 
 =  8.037    (WHEN MIN. R.F.=1)  AT K=  16, I=   1, J=  90


 TOTAL NUMBER OF POINT SOURCES/SINKS PRESENT IN THE FLOW MODEL =    30

 MAXIMUM STEPSIZE WHICH MEETS STABILITY CRITERION OF THE SINK & SOURCE TERM
 =  12.21    (WHEN MIN. R.F.=1)  AT K=  17, I=   1, J=  91

 MAXIMUM STEPSIZE WHICH MEETS STABILITY CRITERION OF THE DISPERSION TERM
 =  4.032    (WHEN MIN. R.F.=1)  AT K=  17, I=   1, J=  90
     1 CALLS TO GCG PACKAGE FOR TRANSPORT TIME STEP 361 IN FLOW TIME STEP   1 STRESS PERIOD   1
     8 TOTAL ITERATIONS
     1 CALLS TO GCG PACKAGE FOR TRANSPORT TIME STEP 361 IN FLOW TIME STEP   1 STRESS PERIOD   1
     8 TOTAL ITERATIONS
 
 SOLVING FOR HEAD 


     2 CALLS TO PCG ROUTINE FOR TIME STEP   1 IN STRESS PERIOD    1
    10 TOTAL ITERATIONS

 MAXIMUM HEAD CHANGE FOR EACH ITERATION (1 INDICATES THE FIRST INNER ITERATION):

    HEAD CHANGE    HEAD CHANGE    HEAD CHANGE    HEAD CHANGE    HEAD CHANGE 
   LAYER,ROW,COL  LAYER,ROW,COL  LAYER,ROW,COL  LAYER,ROW,COL  LAYER,ROW,COL
 ---------------------------------------------------------------------------
  1 -0.1355E-01  0  0.3793E-02  0  0.2852E-02  0  0.7877E-02  0 -0.8362E-02
   ( 15,  1, 86)  ( 17,  1, 89)  (  8,  1, 12)  (  7,  1, 44)  (  7,  1, 44)
  0 -0.1639E-02  0  0.1134E-02  0  0.1182E-02  0 -0.9666E-03  1 -0.3116E-03
   ( 11,  1, 36)  ( 11,  1, 49)  ( 11,  1, 70)  ( 11,  1, 70)  ( 11,  1, 54)

 MAXIMUM RESIDUAL FOR EACH ITERATION (1 INDICATES THE FIRST INNER ITERATION):

    RESIDUAL       RESIDUAL       RESIDUAL       RESIDUAL       RESIDUAL    
   LAYER,ROW,COL  LAYER,ROW,COL  LAYER,ROW,COL  LAYER,ROW,COL  LAYER,ROW,COL
 ---------------------------------------------------------------------------
  1 -0.1333E+06  0  0.9383E+05  0  0.9279E+05  0  0.2839E+05  0   5665.    
   ( 21,  1, 89)  ( 19,  1, 89)  ( 19,  1, 89)  ( 19,  1, 89)  ( 17,  1, 87)
  0  -2823.      0  -2553.      0  -1078.      0  -395.3      1  -341.3    
   ( 22,  1, 87)  ( 22,  1, 87)  ( 22,  1, 87)  ( 22,  1, 87)  ( 22,  1, 87)


 FLOW MODEL IS TRANSIENT
 FLOW MODEL CONTAINS CONSTANT-HEAD CELLS


 MAXIMUM STEPSIZE DURING WHICH ANY PARTICLE CANNOT MOVE MORE THAN ONE CELL
 =  13.20    (WHEN MIN. R.F.=1)  AT K=  17, I=   1, J=  90

 MAXIMUM STEPSIZE WHICH MEETS STABILITY CRITERION OF THE ADVECTION TERM
 (FOR PURE FINITE-DIFFERENCE OPTION, MIXELM=0) 
 =  7.997    (WHEN MIN. R.F.=1)  AT K=  16, I=   1, J=  90


 TOTAL NUMBER OF POINT SOURCES/SINKS PRESENT IN THE FLOW MODEL =    30

 MAXIMUM STEPSIZE WHICH MEETS STABILITY CRITERION OF THE SINK & SOURCE TERM
 =  12.16    (WHEN MIN. R.F.=1)  AT K=  17, I=   1, J=  91

 MAXIMUM STEPSIZE WHICH MEETS STABILITY CRITERION OF THE DISPERSION TERM
 =  4.356    (WHEN MIN. R.F.=1)  AT K=  17, I=   1, J=  90
     1 CALLS TO GCG PACKAGE FOR TRANSPORT TIME STEP 362 IN FLOW TIME STEP   1 STRESS PERIOD   1
     7 TOTAL ITERATIONS
     1 CALLS TO GCG PACKAGE FOR TRANSPORT TIME STEP 362 IN FLOW TIME STEP   1 STRESS PERIOD   1
     8 TOTAL ITERATIONS
 
 SOLVING FOR HEAD 


     2 CALLS TO PCG ROUTINE FOR TIME STEP   1 IN STRESS PERIOD    1
     8 TOTAL ITERATIONS

 MAXIMUM HEAD CHANGE FOR EACH ITERATION (1 INDICATES THE FIRST INNER ITERATION):

    HEAD CHANGE    HEAD CHANGE    HEAD CHANGE    HEAD CHANGE    HEAD CHANGE 
   LAYER,ROW,COL  LAYER,ROW,COL  LAYER,ROW,COL  LAYER,ROW,COL  LAYER,ROW,COL
 ---------------------------------------------------------------------------
  1  0.1344E-01  0 -0.3651E-02  0 -0.3472E-02  0  0.5544E-02  0 -0.7886E-02
   ( 15,  1, 86)  ( 17,  1, 89)  (  8,  1, 12)  ( 11,  1, 54)  ( 11,  1, 54)
  0  0.2636E-02  0 -0.9256E-03  1 -0.7423E-03
   ( 11,  1, 53)  ( 11,  1, 49)  ( 11,  1, 64)

 MAXIMUM RESIDUAL FOR EACH ITERATION (1 INDICATES THE FIRST INNER ITERATION):

    RESIDUAL       RESIDUAL       RESIDUAL       RESIDUAL       RESIDUAL    
   LAYER,ROW,COL  LAYER,ROW,COL  LAYER,ROW,COL  LAYER,ROW,COL  LAYER,ROW,COL
 ---------------------------------------------------------------------------
  1  0.1319E+06  0 -0.9217E+05  0 -0.8458E+05  0 -0.1320E+05  0   3795.    
   ( 21,  1, 89)  ( 19,  1, 89)  ( 19,  1, 89)  ( 17,  1, 87)  ( 18,  1, 89)
  0   2877.      0   2423.      1   2049.    
   ( 22,  1, 87)  ( 22,  1, 87)  ( 22,  1, 87)


 FLOW MODEL IS TRANSIENT
 FLOW MODEL CONTAINS CONSTANT-HEAD CELLS


 MAXIMUM STEPSIZE DURING WHICH ANY PARTICLE CANNOT MOVE MORE THAN ONE CELL
 =  12.84    (WHEN MIN. R.F.=1)  AT K=  17, I=   1, J=  90

 MAXIMUM STEPSIZE WHICH MEETS STABILITY CRITERION OF THE ADVECTION TERM
 (FOR PURE FINITE-DIFFERENCE OPTION, MIXELM=0) 
 =  8.024    (WHEN MIN. R.F.=1)  AT K=  16, I=   1, J=  90


 TOTAL NUMBER OF POINT SOURCES/SINKS PRESENT IN THE FLOW MODEL =    30

 MAXIMUM STEPSIZE WHICH MEETS STABILITY CRITERION OF THE SINK & SOURCE TERM
 =  12.18    (WHEN MIN. R.F.=1)  AT K=  17, I=   1, J=  91

 MAXIMUM STEPSIZE WHICH MEETS STABILITY CRITERION OF THE DISPERSION TERM
 =  4.023    (WHEN MIN. R.F.=1)  AT K=  17, I=   1, J=  90
     1 CALLS TO GCG PACKAGE FOR TRANSPORT TIME STEP 363 IN FLOW TIME STEP   1 STRESS PERIOD   1
     8 TOTAL ITERATIONS
     1 CALLS TO GCG PACKAGE FOR TRANSPORT TIME STEP 363 IN FLOW TIME STEP   1 STRESS PERIOD   1
     8 TOTAL ITERATIONS
 
 SOLVING FOR HEAD 


     2 CALLS TO PCG ROUTINE FOR TIME STEP   1 IN STRESS PERIOD    1
     9 TOTAL ITERATIONS

 MAXIMUM HEAD CHANGE FOR EACH ITERATION (1 INDICATES THE FIRST INNER ITERATION):

    HEAD CHANGE    HEAD CHANGE    HEAD CHANGE    HEAD CHANGE    HEAD CHANGE 
   LAYER,ROW,COL  LAYER,ROW,COL  LAYER,ROW,COL  LAYER,ROW,COL  LAYER,ROW,COL
 ---------------------------------------------------------------------------
  1 -0.1371E-01  0 -0.5416E-02  0  0.3881E-02  0  0.9509E-02  0 -0.7892E-02
   ( 15,  1, 86)  (  6,  1, 40)  (  7,  1, 12)  (  7,  1, 50)  ( 10,  1, 50)
  0 -0.4129E-02  0  0.1685E-02  0  0.6558E-03  1 -0.5418E-03
   ( 11,  1, 54)  ( 11,  1, 54)  ( 11,  1, 66)  ( 11,  1, 65)

 MAXIMUM RESIDUAL FOR EACH ITERATION (1 INDICATES THE FIRST INNER ITERATION):

    RESIDUAL       RESIDUAL       RESIDUAL       RESIDUAL       RESIDUAL    
   LAYER,ROW,COL  LAYER,ROW,COL  LAYER,ROW,COL  LAYER,ROW,COL  LAYER,ROW,COL
 ---------------------------------------------------------------------------
  1 -0.1339E+06  0  0.9444E+05  0  0.9365E+05  0  0.6641E+05  0   6264.    
   ( 21,  1, 89)  ( 19,  1, 89)  ( 19,  1, 89)  ( 19,  1, 89)  ( 17,  1, 87)
  0  -2750.      0  -2560.      0  -1300.      1  -1164.    
   ( 17,  1, 88)  ( 22,  1, 87)  ( 22,  1, 87)  ( 22,  1, 87)


 FLOW MODEL IS TRANSIENT
 FLOW MODEL CONTAINS CONSTANT-HEAD CELLS


 MAXIMUM STEPSIZE DURING WHICH ANY PARTICLE CANNOT MOVE MORE THAN ONE CELL
 =  13.15    (WHEN MIN. R.F.=1)  AT K=  17, I=   1, J=  90

 MAXIMUM STEPSIZE WHICH MEETS STABILITY CRITERION OF THE ADVECTION TERM
 (FOR PURE FINITE-DIFFERENCE OPTION, MIXELM=0) 
 =  7.975    (WHEN MIN. R.F.=1)  AT K=  16, I=   1, J=  90


 TOTAL NUMBER OF POINT SOURCES/SINKS PRESENT IN THE FLOW MODEL =    30

 MAXIMUM STEPSIZE WHICH MEETS STABILITY CRITERION OF THE SINK & SOURCE TERM
 =  12.08    (WHEN MIN. R.F.=1)  AT K=  17, I=   1, J=  91

 MAXIMUM STEPSIZE WHICH MEETS STABILITY CRITERION OF THE DISPERSION TERM
 =  4.332    (WHEN MIN. R.F.=1)  AT K=  17, I=   1, J=  90
     1 CALLS TO GCG PACKAGE FOR TRANSPORT TIME STEP 364 IN FLOW TIME STEP   1 STRESS PERIOD   1
     8 TOTAL ITERATIONS
     1 CALLS TO GCG PACKAGE FOR TRANSPORT TIME STEP 364 IN FLOW TIME STEP   1 STRESS PERIOD   1
     8 TOTAL ITERATIONS
 
 SOLVING FOR HEAD 


     2 CALLS TO PCG ROUTINE FOR TIME STEP   1 IN STRESS PERIOD    1
    10 TOTAL ITERATIONS

 MAXIMUM HEAD CHANGE FOR EACH ITERATION (1 INDICATES THE FIRST INNER ITERATION):

    HEAD CHANGE    HEAD CHANGE    HEAD CHANGE    HEAD CHANGE    HEAD CHANGE 
   LAYER,ROW,COL  LAYER,ROW,COL  LAYER,ROW,COL  LAYER,ROW,COL  LAYER,ROW,COL
 ---------------------------------------------------------------------------
  1  0.1376E-01  0 -0.4099E-02  0 -0.3364E-02  0 -0.8757E-02  0  0.1014E-01
   ( 15,  1, 86)  ( 17,  1, 89)  (  8,  1, 12)  ( 11,  1, 54)  ( 11,  1, 54)
  0 -0.1863E-02  0 -0.1445E-02  0  0.1135E-02  0  0.3413E-03  1 -0.3176E-03
   ( 11,  1, 54)  ( 11,  1, 70)  ( 11,  1, 70)  ( 11,  1, 66)  ( 11,  1, 70)

 MAXIMUM RESIDUAL FOR EACH ITERATION (1 INDICATES THE FIRST INNER ITERATION):

    RESIDUAL       RESIDUAL       RESIDUAL       RESIDUAL       RESIDUAL    
   LAYER,ROW,COL  LAYER,ROW,COL  LAYER,ROW,COL  LAYER,ROW,COL  LAYER,ROW,COL
 ---------------------------------------------------------------------------
  1  0.1328E+06  0 -0.9444E+05  0 -0.9356E+05  0 -0.2068E+05  0   5023.    
   ( 21,  1, 89)  ( 19,  1, 89)  ( 19,  1, 89)  ( 19,  1, 89)  ( 17,  1, 88)
  0   2796.      0   1469.      0   485.4      0  -297.2      1  -244.8    
   ( 22,  1, 87)  ( 22,  1, 87)  ( 22,  1, 87)  ( 19,  1, 90)  ( 17,  1, 89)


 FLOW MODEL IS TRANSIENT
 FLOW MODEL CONTAINS CONSTANT-HEAD CELLS


 MAXIMUM STEPSIZE DURING WHICH ANY PARTICLE CANNOT MOVE MORE THAN ONE CELL
 =  12.85    (WHEN MIN. R.F.=1)  AT K=  17, I=   1, J=  90

 MAXIMUM STEPSIZE WHICH MEETS STABILITY CRITERION OF THE ADVECTION TERM
 (FOR PURE FINITE-DIFFERENCE OPTION, MIXELM=0) 
 =  8.034    (WHEN MIN. R.F.=1)  AT K=  16, I=   1, J=  90


 TOTAL NUMBER OF POINT SOURCES/SINKS PRESENT IN THE FLOW MODEL =    30

 MAXIMUM STEPSIZE WHICH MEETS STABILITY CRITERION OF THE SINK & SOURCE TERM
 =  12.19    (WHEN MIN. R.F.=1)  AT K=  17, I=   1, J=  91

 MAXIMUM STEPSIZE WHICH MEETS STABILITY CRITERION OF THE DISPERSION TERM
 =  4.027    (WHEN MIN. R.F.=1)  AT K=  17, I=   1, J=  90
     1 CALLS TO GCG PACKAGE FOR TRANSPORT TIME STEP 365 IN FLOW TIME STEP   1 STRESS PERIOD   1
     8 TOTAL ITERATIONS
  MAXIMUM CONCENTRATION CHANGES FOR EACH ITERATION:
  MAX. CHANGE LAYER,ROW,COL MAX. CHANGE LAYER,ROW,COL MAX. CHANGE LAYER,ROW,COL MAX. CHANGE LAYER,ROW,COL MAX. CHANGE LAYER,ROW,COL
 ------------------------------------------------------------------------------------------------------------------------------------
   0.5281E-01 ( 20,  1, 87)  0.4260E-02 ( 19,  1, 89)  0.2081E-02 ( 18,  1, 86)  0.4583E-03 ( 20,  1, 89)  0.9279E-04 ( 16,  1, 89)
   0.2049E-04 ( 20,  1, 89)  0.1857E-04 ( 16,  1, 90)  0.7640E-06 ( 17,  1, 90)
     1 CALLS TO GCG PACKAGE FOR TRANSPORT TIME STEP 365 IN FLOW TIME STEP   1 STRESS PERIOD   1
     8 TOTAL ITERATIONS
  MAXIMUM CONCENTRATION CHANGES FOR EACH ITERATION:
  MAX. CHANGE LAYER,ROW,COL MAX. CHANGE LAYER,ROW,COL MAX. CHANGE LAYER,ROW,COL MAX. CHANGE LAYER,ROW,COL MAX. CHANGE LAYER,ROW,COL
 ------------------------------------------------------------------------------------------------------------------------------------
   0.6118E-01 ( 20,  1, 87)  0.4887E-02 ( 19,  1, 89)  0.1993E-02 ( 18,  1, 86)  0.5712E-03 ( 19,  1, 89)  0.1224E-03 ( 16,  1, 89)
   0.3064E-04 ( 23,  1, 87)  0.1582E-04 ( 17,  1, 90)  0.8965E-06 ( 17,  1, 90)
 
 SOLVING FOR HEAD 


     2 CALLS TO PCG ROUTINE FOR TIME STEP   1 IN STRESS PERIOD    1
     9 TOTAL ITERATIONS

 MAXIMUM HEAD CHANGE FOR EACH ITERATION (1 INDICATES THE FIRST INNER ITERATION):

    HEAD CHANGE    HEAD CHANGE    HEAD CHANGE    HEAD CHANGE    HEAD CHANGE 
   LAYER,ROW,COL  LAYER,ROW,COL  LAYER,ROW,COL  LAYER,ROW,COL  LAYER,ROW,COL
 ---------------------------------------------------------------------------
  1 -0.1331E-01  0  0.3583E-02  0  0.2359E-02  0 -0.4799E-02  0 -0.6812E-02
   ( 15,  1, 86)  ( 17,  1, 89)  (  8,  1, 12)  ( 11,  1, 59)  ( 11,  1, 49)
  0  0.2304E-02  0  0.1355E-02  0  0.5758E-03  1 -0.9575E-03
   ( 11,  1, 49)  ( 11,  1, 70)  ( 11,  1, 57)  ( 11,  1, 70)

 MAXIMUM RESIDUAL FOR EACH ITERATION (1 INDICATES THE FIRST INNER ITERATION):

    RESIDUAL       RESIDUAL       RESIDUAL       RESIDUAL       RESIDUAL    
   LAYER,ROW,COL  LAYER,ROW,COL  LAYER,ROW,COL  LAYER,ROW,COL  LAYER,ROW,COL
 ---------------------------------------------------------------------------
  1 -0.1296E+06  0  0.9067E+05  0  0.8930E+05  0  0.1384E+05  0   4050.    
   ( 21,  1, 89)  ( 19,  1, 89)  ( 19,  1, 89)  ( 17,  1, 87)  ( 17,  1, 87)
  0  -2862.      0  -2320.      0  -813.1      1  -677.5    
   ( 22,  1, 87)  ( 22,  1, 87)  ( 22,  1, 87)  ( 22,  1, 87)


 FLOW MODEL IS TRANSIENT
 FLOW MODEL CONTAINS CONSTANT-HEAD CELLS


 MAXIMUM STEPSIZE DURING WHICH ANY PARTICLE CANNOT MOVE MORE THAN ONE CELL
 =  13.23    (WHEN MIN. R.F.=1)  AT K=  17, I=   1, J=  90

 MAXIMUM STEPSIZE WHICH MEETS STABILITY CRITERION OF THE ADVECTION TERM
 (FOR PURE FINITE-DIFFERENCE OPTION, MIXELM=0) 
 =  8.010    (WHEN MIN. R.F.=1)  AT K=  16, I=   1, J=  90


 TOTAL NUMBER OF POINT SOURCES/SINKS PRESENT IN THE FLOW MODEL =    30

 MAXIMUM STEPSIZE WHICH MEETS STABILITY CRITERION OF THE SINK & SOURCE TERM
 =  12.18    (WHEN MIN. R.F.=1)  AT K=  17, I=   1, J=  91

 MAXIMUM STEPSIZE WHICH MEETS STABILITY CRITERION OF THE DISPERSION TERM
 =  4.369    (WHEN MIN. R.F.=1)  AT K=  17, I=   1, J=  90
     1 CALLS TO GCG PACKAGE FOR TRANSPORT TIME STEP 366 IN FLOW TIME STEP   1 STRESS PERIOD   1
     7 TOTAL ITERATIONS
     1 CALLS TO GCG PACKAGE FOR TRANSPORT TIME STEP 366 IN FLOW TIME STEP   1 STRESS PERIOD   1
     8 TOTAL ITERATIONS
 
 SOLVING FOR HEAD 


     2 CALLS TO PCG ROUTINE FOR TIME STEP   1 IN STRESS PERIOD    1
    10 TOTAL ITERATIONS

 MAXIMUM HEAD CHANGE FOR EACH ITERATION (1 INDICATES THE FIRST INNER ITERATION):

    HEAD CHANGE    HEAD CHANGE    HEAD CHANGE    HEAD CHANGE    HEAD CHANGE 
   LAYER,ROW,COL  LAYER,ROW,COL  LAYER,ROW,COL  LAYER,ROW,COL  LAYER,ROW,COL
 ---------------------------------------------------------------------------
  1  0.1335E-01  0 -0.3567E-02  0 -0.2535E-02  0 -0.8730E-02  0  0.8539E-02
   ( 15,  1, 86)  ( 17,  1, 89)  (  7,  1, 12)  ( 11,  1, 67)  ( 11,  1, 67)
  0  0.1892E-02  0 -0.1188E-02  0 -0.1031E-02  0  0.8530E-03  1  0.2326E-03
   ( 11,  1, 49)  ( 11,  1, 49)  ( 11,  1, 59)  ( 11,  1, 66)  ( 11,  1, 70)

 MAXIMUM RESIDUAL FOR EACH ITERATION (1 INDICATES THE FIRST INNER ITERATION):

    RESIDUAL       RESIDUAL       RESIDUAL       RESIDUAL       RESIDUAL    
   LAYER,ROW,COL  LAYER,ROW,COL  LAYER,ROW,COL  LAYER,ROW,COL  LAYER,ROW,COL
 ---------------------------------------------------------------------------
  1  0.1317E+06  0 -0.9154E+05  0 -0.8826E+05  0 -0.2808E+05  0  -5785.    
   ( 21,  1, 89)  ( 19,  1, 89)  ( 19,  1, 89)  ( 19,  1, 89)  ( 17,  1, 87)
  0   2895.      0   2609.      0   998.7      0   382.7      1   333.0    
   ( 22,  1, 87)  ( 22,  1, 87)  ( 22,  1, 87)  ( 22,  1, 87)  ( 22,  1, 87)


 FLOW MODEL IS TRANSIENT
 FLOW MODEL CONTAINS CONSTANT-HEAD CELLS


 MAXIMUM STEPSIZE DURING WHICH ANY PARTICLE CANNOT MOVE MORE THAN ONE CELL
 =  12.88    (WHEN MIN. R.F.=1)  AT K=  17, I=   1, J=  90

 MAXIMUM STEPSIZE WHICH MEETS STABILITY CRITERION OF THE ADVECTION TERM
 (FOR PURE FINITE-DIFFERENCE OPTION, MIXELM=0) 
 =  8.039    (WHEN MIN. R.F.=1)  AT K=  16, I=   1, J=  90


 TOTAL NUMBER OF POINT SOURCES/SINKS PRESENT IN THE FLOW MODEL =    30

 MAXIMUM STEPSIZE WHICH MEETS STABILITY CRITERION OF THE SINK & SOURCE TERM
 =  12.21    (WHEN MIN. R.F.=1)  AT K=  17, I=   1, J=  91

 MAXIMUM STEPSIZE WHICH MEETS STABILITY CRITERION OF THE DISPERSION TERM
 =  4.040    (WHEN MIN. R.F.=1)  AT K=  17, I=   1, J=  90
     1 CALLS TO GCG PACKAGE FOR TRANSPORT TIME STEP 367 IN FLOW TIME STEP   1 STRESS PERIOD   1
     8 TOTAL ITERATIONS
     1 CALLS TO GCG PACKAGE FOR TRANSPORT TIME STEP 367 IN FLOW TIME STEP   1 STRESS PERIOD   1
     8 TOTAL ITERATIONS
 
 SOLVING FOR HEAD 


     2 CALLS TO PCG ROUTINE FOR TIME STEP   1 IN STRESS PERIOD    1
     8 TOTAL ITERATIONS

 MAXIMUM HEAD CHANGE FOR EACH ITERATION (1 INDICATES THE FIRST INNER ITERATION):

    HEAD CHANGE    HEAD CHANGE    HEAD CHANGE    HEAD CHANGE    HEAD CHANGE 
   LAYER,ROW,COL  LAYER,ROW,COL  LAYER,ROW,COL  LAYER,ROW,COL  LAYER,ROW,COL
 ---------------------------------------------------------------------------
  1 -0.1340E-01  0  0.3558E-02  0  0.2456E-02  0  0.3646E-02  0 -0.5079E-02
   ( 15,  1, 86)  ( 17,  1, 89)  (  8,  1, 12)  ( 11,  1, 66)  ( 11,  1, 66)
  0 -0.2416E-02  0  0.8628E-03  1 -0.5835E-03
   ( 11,  1, 51)  ( 11,  1, 50)  ( 11,  1, 50)

 MAXIMUM RESIDUAL FOR EACH ITERATION (1 INDICATES THE FIRST INNER ITERATION):

    RESIDUAL       RESIDUAL       RESIDUAL       RESIDUAL       RESIDUAL    
   LAYER,ROW,COL  LAYER,ROW,COL  LAYER,ROW,COL  LAYER,ROW,COL  LAYER,ROW,COL
 ---------------------------------------------------------------------------
  1 -0.1330E+06  0  0.9374E+05  0  0.9111E+05  0  0.1310E+05  0  -3519.    
   ( 21,  1, 89)  ( 19,  1, 89)  ( 19,  1, 89)  ( 17,  1, 87)  ( 18,  1, 89)
  0  -2816.      0  -2184.      1  -1876.    
   ( 22,  1, 87)  ( 22,  1, 87)  ( 22,  1, 87)


 FLOW MODEL IS TRANSIENT
 FLOW MODEL CONTAINS CONSTANT-HEAD CELLS


 MAXIMUM STEPSIZE DURING WHICH ANY PARTICLE CANNOT MOVE MORE THAN ONE CELL
 =  13.23    (WHEN MIN. R.F.=1)  AT K=  17, I=   1, J=  90

 MAXIMUM STEPSIZE WHICH MEETS STABILITY CRITERION OF THE ADVECTION TERM
 (FOR PURE FINITE-DIFFERENCE OPTION, MIXELM=0) 
 =  8.011    (WHEN MIN. R.F.=1)  AT K=  16, I=   1, J=  90


 TOTAL NUMBER OF POINT SOURCES/SINKS PRESENT IN THE FLOW MODEL =    30

 MAXIMUM STEPSIZE WHICH MEETS STABILITY CRITERION OF THE SINK & SOURCE TERM
 =  12.18    (WHEN MIN. R.F.=1)  AT K=  17, I=   1, J=  91

 MAXIMUM STEPSIZE WHICH MEETS STABILITY CRITERION OF THE DISPERSION TERM
 =  4.362    (WHEN MIN. R.F.=1)  AT K=  17, I=   1, J=  90
     1 CALLS TO GCG PACKAGE FOR TRANSPORT TIME STEP 368 IN FLOW TIME STEP   1 STRESS PERIOD   1
     8 TOTAL ITERATIONS
     1 CALLS TO GCG PACKAGE FOR TRANSPORT TIME STEP 368 IN FLOW TIME STEP   1 STRESS PERIOD   1
     8 TOTAL ITERATIONS
 
 SOLVING FOR HEAD 


     2 CALLS TO PCG ROUTINE FOR TIME STEP   1 IN STRESS PERIOD    1
     8 TOTAL ITERATIONS

 MAXIMUM HEAD CHANGE FOR EACH ITERATION (1 INDICATES THE FIRST INNER ITERATION):

    HEAD CHANGE    HEAD CHANGE    HEAD CHANGE    HEAD CHANGE    HEAD CHANGE 
   LAYER,ROW,COL  LAYER,ROW,COL  LAYER,ROW,COL  LAYER,ROW,COL  LAYER,ROW,COL
 ---------------------------------------------------------------------------
  1  0.1375E-01  0 -0.3926E-02  0 -0.3397E-02  0  0.1237E-01  0 -0.1065E-01
   ( 15,  1, 86)  ( 11,  1, 50)  (  8,  1, 12)  ( 11,  1, 51)  ( 11,  1, 51)
  0 -0.2860E-02  0 -0.7512E-03  1 -0.5994E-03
   ( 11,  1, 66)  ( 11,  1, 70)  ( 11,  1, 54)

 MAXIMUM RESIDUAL FOR EACH ITERATION (1 INDICATES THE FIRST INNER ITERATION):

    RESIDUAL       RESIDUAL       RESIDUAL       RESIDUAL       RESIDUAL    
   LAYER,ROW,COL  LAYER,ROW,COL  LAYER,ROW,COL  LAYER,ROW,COL  LAYER,ROW,COL
 ---------------------------------------------------------------------------
  1  0.1326E+06  0 -0.9355E+05  0 -0.9268E+05  0 -0.4859E+05  0  -5719.    
   ( 21,  1, 89)  ( 19,  1, 89)  ( 19,  1, 89)  ( 19,  1, 89)  ( 17,  1, 87)
  0   2789.      0   2641.      1   2037.    
   ( 22,  1, 87)  ( 22,  1, 87)  ( 22,  1, 87)


 FLOW MODEL IS TRANSIENT
 FLOW MODEL CONTAINS CONSTANT-HEAD CELLS


 MAXIMUM STEPSIZE DURING WHICH ANY PARTICLE CANNOT MOVE MORE THAN ONE CELL
 =  12.90    (WHEN MIN. R.F.=1)  AT K=  17, I=   1, J=  90

 MAXIMUM STEPSIZE WHICH MEETS STABILITY CRITERION OF THE ADVECTION TERM
 (FOR PURE FINITE-DIFFERENCE OPTION, MIXELM=0) 
 =  8.053    (WHEN MIN. R.F.=1)  AT K=  16, I=   1, J=  90


 TOTAL NUMBER OF POINT SOURCES/SINKS PRESENT IN THE FLOW MODEL =    30

 MAXIMUM STEPSIZE WHICH MEETS STABILITY CRITERION OF THE SINK & SOURCE TERM
 =  12.27    (WHEN MIN. R.F.=1)  AT K=  17, I=   1, J=  91

 MAXIMUM STEPSIZE WHICH MEETS STABILITY CRITERION OF THE DISPERSION TERM
 =  4.049    (WHEN MIN. R.F.=1)  AT K=  17, I=   1, J=  90
     1 CALLS TO GCG PACKAGE FOR TRANSPORT TIME STEP 369 IN FLOW TIME STEP   1 STRESS PERIOD   1
     8 TOTAL ITERATIONS
     1 CALLS TO GCG PACKAGE FOR TRANSPORT TIME STEP 369 IN FLOW TIME STEP   1 STRESS PERIOD   1
     8 TOTAL ITERATIONS
 
 SOLVING FOR HEAD 


     2 CALLS TO PCG ROUTINE FOR TIME STEP   1 IN STRESS PERIOD    1
     9 TOTAL ITERATIONS

 MAXIMUM HEAD CHANGE FOR EACH ITERATION (1 INDICATES THE FIRST INNER ITERATION):

    HEAD CHANGE    HEAD CHANGE    HEAD CHANGE    HEAD CHANGE    HEAD CHANGE 
   LAYER,ROW,COL  LAYER,ROW,COL  LAYER,ROW,COL  LAYER,ROW,COL  LAYER,ROW,COL
 ---------------------------------------------------------------------------
  1 -0.1381E-01  0 -0.8259E-02  0  0.4747E-02  0  0.9421E-02  0 -0.6998E-02
   ( 15,  1, 86)  (  5,  1, 41)  (  7,  1, 12)  (  9,  1, 44)  (  8,  1, 45)
  0  0.4813E-02  0  0.1447E-02  0  0.9671E-03  1 -0.7704E-03
   ( 11,  1, 67)  ( 11,  1, 53)  ( 11,  1, 70)  ( 11,  1, 70)

 MAXIMUM RESIDUAL FOR EACH ITERATION (1 INDICATES THE FIRST INNER ITERATION):

    RESIDUAL       RESIDUAL       RESIDUAL       RESIDUAL       RESIDUAL    
   LAYER,ROW,COL  LAYER,ROW,COL  LAYER,ROW,COL  LAYER,ROW,COL  LAYER,ROW,COL
 ---------------------------------------------------------------------------
  1 -0.1363E+06  0  0.9701E+05  0  0.9636E+05  0  0.7761E+05  0   6201.    
   ( 21,  1, 89)  ( 19,  1, 89)  ( 19,  1, 89)  ( 19,  1, 89)  ( 17,  1, 87)
  0  -3095.      0  -2659.      0  -1764.      1  -1524.    
   ( 17,  1, 88)  ( 22,  1, 87)  ( 22,  1, 87)  ( 22,  1, 87)


 FLOW MODEL IS TRANSIENT
 FLOW MODEL CONTAINS CONSTANT-HEAD CELLS


 MAXIMUM STEPSIZE DURING WHICH ANY PARTICLE CANNOT MOVE MORE THAN ONE CELL
 =  13.20    (WHEN MIN. R.F.=1)  AT K=  17, I=   1, J=  90

 MAXIMUM STEPSIZE WHICH MEETS STABILITY CRITERION OF THE ADVECTION TERM
 (FOR PURE FINITE-DIFFERENCE OPTION, MIXELM=0) 
 =  7.992    (WHEN MIN. R.F.=1)  AT K=  16, I=   1, J=  90


 TOTAL NUMBER OF POINT SOURCES/SINKS PRESENT IN THE FLOW MODEL =    30

 MAXIMUM STEPSIZE WHICH MEETS STABILITY CRITERION OF THE SINK & SOURCE TERM
 =  12.15    (WHEN MIN. R.F.=1)  AT K=  17, I=   1, J=  91

 MAXIMUM STEPSIZE WHICH MEETS STABILITY CRITERION OF THE DISPERSION TERM
 =  4.356    (WHEN MIN. R.F.=1)  AT K=  17, I=   1, J=  90
     1 CALLS TO GCG PACKAGE FOR TRANSPORT TIME STEP 370 IN FLOW TIME STEP   1 STRESS PERIOD   1
     9 TOTAL ITERATIONS
  MAXIMUM CONCENTRATION CHANGES FOR EACH ITERATION:
  MAX. CHANGE LAYER,ROW,COL MAX. CHANGE LAYER,ROW,COL MAX. CHANGE LAYER,ROW,COL MAX. CHANGE LAYER,ROW,COL MAX. CHANGE LAYER,ROW,COL
 ------------------------------------------------------------------------------------------------------------------------------------
   0.4866E-01 ( 20,  1, 87)  0.3286E-02 ( 19,  1, 87)  0.2131E-02 ( 18,  1, 87)  0.2112E-03 ( 16,  1, 88)  0.1424E-03 ( 17,  1, 89)
   0.2794E-04 ( 16,  1, 90)  0.1887E-05 ( 21,  1, 78)  0.2667E-05 ( 21,  1, 78)  0.8040E-06 ( 16,  1, 89)
     1 CALLS TO GCG PACKAGE FOR TRANSPORT TIME STEP 370 IN FLOW TIME STEP   1 STRESS PERIOD   1
     8 TOTAL ITERATIONS
  MAXIMUM CONCENTRATION CHANGES FOR EACH ITERATION:
  MAX. CHANGE LAYER,ROW,COL MAX. CHANGE LAYER,ROW,COL MAX. CHANGE LAYER,ROW,COL MAX. CHANGE LAYER,ROW,COL MAX. CHANGE LAYER,ROW,COL
 ------------------------------------------------------------------------------------------------------------------------------------
   0.5669E-01 ( 20,  1, 87)  0.4545E-02 ( 19,  1, 87)  0.2279E-02 ( 18,  1, 87)  0.3783E-03 ( 18,  1, 87)  0.1389E-03 ( 17,  1, 89)
   0.3814E-04 ( 17,  1, 90)  0.5837E-05 ( 17,  1, 90)  0.5627E-06 ( 16,  1, 89)



 >>>>>>>>>>>>>>>>>>>>>>>>>>>>>>>>>>>>>>>>>>>>>>>>>>>>>>>FOR COMPONENT NO. 01<<<<<<<<<<<<<<<<<<<<<<<<<<<<<<<<<<<<<<<<<<<<<<<<<<<<<<<


                                            -------------------------------------------
                                                      TRANSPORT STEP NO.  370
                                            -------------------------------------------

 TOTAL ELAPSED TIME SINCE BEGINNING OF SIMULATION =   18500.00    D   
 .....................................................................

                     CUMMULATIVE MASS BUDGETS AT END OF TRANSPORT STEP  370, TIME STEP    1, STRESS PERIOD    1
                     ------------------------------------------------------------------------------------------

                                                             IN                           OUT
                                                      ----------------             ----------------
                               CONSTANT CONCENTRATION:    0.000000                    0.000000    
                                        CONSTANT HEAD:   0.7322526E+09              -0.7320530E+09
                                                WELLS:    0.000000                    0.000000    
                                             RECHARGE:    0.000000                    0.000000    
                               1ST/0TH ORDER REACTION:    0.000000                    0.000000    
                                MASS STORAGE (SOLUTE):   0.1024058E+09              -0.1026055E+09
                            ---------------------------------------------------------------------------
                                              [TOTAL]:   0.8346592E+09 KG           -0.8346593E+09 KG  

                                                          NET (IN - OUT):   -122.6196    
                                                   DISCREPANCY (PERCENT):  -0.1469098E-04



 >>>>>>>>>>>>>>>>>>>>>>>>>>>>>>>>>>>>>>>>>>>>>>>>>>>>>>>FOR COMPONENT NO. 02<<<<<<<<<<<<<<<<<<<<<<<<<<<<<<<<<<<<<<<<<<<<<<<<<<<<<<<


                                            -------------------------------------------
                                                      TRANSPORT STEP NO.  370
                                            -------------------------------------------

 TOTAL ELAPSED TIME SINCE BEGINNING OF SIMULATION =   18500.00    D   
 .....................................................................

                     CUMMULATIVE MASS BUDGETS AT END OF TRANSPORT STEP  370, TIME STEP    1, STRESS PERIOD    1
                     ------------------------------------------------------------------------------------------

                                                             IN                           OUT
                                                      ----------------             ----------------
                               CONSTANT CONCENTRATION:    0.000000                    0.000000    
                                        CONSTANT HEAD:    0.000000                  -0.8982021E+11
                                                WELLS:    0.000000                    0.000000    
                                             RECHARGE:    0.000000                    0.000000    
                               1ST/0TH ORDER REACTION:   0.3061750E+12                0.000000    
                                MASS STORAGE (SOLUTE):   0.2512666E+11              -0.2414815E+12
                            ---------------------------------------------------------------------------
                                              [TOTAL]:   0.3313021E+12 KG           -0.3313021E+12 KG  

                                                          NET (IN - OUT):   -25583.68    
                                                   DISCREPANCY (PERCENT):  -0.7722161E-05
 
 SOLVING FOR HEAD 


     2 CALLS TO PCG ROUTINE FOR TIME STEP   1 IN STRESS PERIOD    1
     9 TOTAL ITERATIONS

 MAXIMUM HEAD CHANGE FOR EACH ITERATION (1 INDICATES THE FIRST INNER ITERATION):

    HEAD CHANGE    HEAD CHANGE    HEAD CHANGE    HEAD CHANGE    HEAD CHANGE 
   LAYER,ROW,COL  LAYER,ROW,COL  LAYER,ROW,COL  LAYER,ROW,COL  LAYER,ROW,COL
 ---------------------------------------------------------------------------
  1  0.1361E-01  0 -0.4165E-02  0 -0.3059E-02  0 -0.9179E-02  0  0.1053E-01
   ( 15,  1, 86)  ( 17,  1, 89)  (  8,  1, 12)  ( 11,  1, 49)  ( 11,  1, 49)
  0 -0.2603E-02  0 -0.1107E-02  0 -0.5453E-03  1  0.4477E-03
   ( 11,  1, 52)  ( 11,  1, 66)  ( 11,  1, 35)  ( 11,  1, 36)

 MAXIMUM RESIDUAL FOR EACH ITERATION (1 INDICATES THE FIRST INNER ITERATION):

    RESIDUAL       RESIDUAL       RESIDUAL       RESIDUAL       RESIDUAL    
   LAYER,ROW,COL  LAYER,ROW,COL  LAYER,ROW,COL  LAYER,ROW,COL  LAYER,ROW,COL
 ---------------------------------------------------------------------------
  1  0.1364E+06  0 -0.9811E+05  0 -0.9707E+05  0 -0.2139E+05  0   5090.    
   ( 21,  1, 89)  ( 19,  1, 89)  ( 19,  1, 89)  ( 19,  1, 89)  ( 17,  1, 88)
  0   2704.      0   2452.      0   1120.      1   998.7    
   ( 22,  1, 87)  ( 22,  1, 87)  ( 22,  1, 87)  ( 22,  1, 87)


 FLOW MODEL IS TRANSIENT
 FLOW MODEL CONTAINS CONSTANT-HEAD CELLS


 MAXIMUM STEPSIZE DURING WHICH ANY PARTICLE CANNOT MOVE MORE THAN ONE CELL
 =  12.85    (WHEN MIN. R.F.=1)  AT K=  17, I=   1, J=  90

 MAXIMUM STEPSIZE WHICH MEETS STABILITY CRITERION OF THE ADVECTION TERM
 (FOR PURE FINITE-DIFFERENCE OPTION, MIXELM=0) 
 =  8.038    (WHEN MIN. R.F.=1)  AT K=  16, I=   1, J=  90


 TOTAL NUMBER OF POINT SOURCES/SINKS PRESENT IN THE FLOW MODEL =    30

 MAXIMUM STEPSIZE WHICH MEETS STABILITY CRITERION OF THE SINK & SOURCE TERM
 =  12.21    (WHEN MIN. R.F.=1)  AT K=  17, I=   1, J=  91

 MAXIMUM STEPSIZE WHICH MEETS STABILITY CRITERION OF THE DISPERSION TERM
 =  4.020    (WHEN MIN. R.F.=1)  AT K=  17, I=   1, J=  90
     1 CALLS TO GCG PACKAGE FOR TRANSPORT TIME STEP 371 IN FLOW TIME STEP   1 STRESS PERIOD   1
     8 TOTAL ITERATIONS
     1 CALLS TO GCG PACKAGE FOR TRANSPORT TIME STEP 371 IN FLOW TIME STEP   1 STRESS PERIOD   1
     8 TOTAL ITERATIONS
 
 SOLVING FOR HEAD 


     2 CALLS TO PCG ROUTINE FOR TIME STEP   1 IN STRESS PERIOD    1
     9 TOTAL ITERATIONS

 MAXIMUM HEAD CHANGE FOR EACH ITERATION (1 INDICATES THE FIRST INNER ITERATION):

    HEAD CHANGE    HEAD CHANGE    HEAD CHANGE    HEAD CHANGE    HEAD CHANGE 
   LAYER,ROW,COL  LAYER,ROW,COL  LAYER,ROW,COL  LAYER,ROW,COL  LAYER,ROW,COL
 ---------------------------------------------------------------------------
  1 -0.1354E-01  0  0.3948E-02  0  0.3654E-02  0  0.8969E-02  0 -0.8966E-02
   ( 15,  1, 86)  ( 17,  1, 89)  (  8,  1, 12)  (  8,  1, 44)  (  7,  1, 44)
  0  0.1352E-02  0  0.1085E-02  0  0.7519E-03  1 -0.6449E-03
   ( 11,  1, 68)  ( 11,  1, 50)  ( 11,  1, 66)  ( 11,  1, 70)

 MAXIMUM RESIDUAL FOR EACH ITERATION (1 INDICATES THE FIRST INNER ITERATION):

    RESIDUAL       RESIDUAL       RESIDUAL       RESIDUAL       RESIDUAL    
   LAYER,ROW,COL  LAYER,ROW,COL  LAYER,ROW,COL  LAYER,ROW,COL  LAYER,ROW,COL
 ---------------------------------------------------------------------------
  1 -0.1316E+06  0  0.9205E+05  0  0.9126E+05  0  0.3157E+05  0   5922.    
   ( 21,  1, 89)  ( 19,  1, 89)  ( 19,  1, 89)  ( 19,  1, 89)  ( 17,  1, 87)
  0  -2884.      0  -2543.      0  -780.6      1  -654.5    
   ( 22,  1, 87)  ( 22,  1, 87)  ( 22,  1, 87)  ( 22,  1, 87)


 FLOW MODEL IS TRANSIENT
 FLOW MODEL CONTAINS CONSTANT-HEAD CELLS


 MAXIMUM STEPSIZE DURING WHICH ANY PARTICLE CANNOT MOVE MORE THAN ONE CELL
 =  13.23    (WHEN MIN. R.F.=1)  AT K=  17, I=   1, J=  90

 MAXIMUM STEPSIZE WHICH MEETS STABILITY CRITERION OF THE ADVECTION TERM
 (FOR PURE FINITE-DIFFERENCE OPTION, MIXELM=0) 
 =  8.006    (WHEN MIN. R.F.=1)  AT K=  16, I=   1, J=  90


 TOTAL NUMBER OF POINT SOURCES/SINKS PRESENT IN THE FLOW MODEL =    30

 MAXIMUM STEPSIZE WHICH MEETS STABILITY CRITERION OF THE SINK & SOURCE TERM
 =  12.17    (WHEN MIN. R.F.=1)  AT K=  17, I=   1, J=  91

 MAXIMUM STEPSIZE WHICH MEETS STABILITY CRITERION OF THE DISPERSION TERM
 =  4.374    (WHEN MIN. R.F.=1)  AT K=  17, I=   1, J=  90
     1 CALLS TO GCG PACKAGE FOR TRANSPORT TIME STEP 372 IN FLOW TIME STEP   1 STRESS PERIOD   1
     9 TOTAL ITERATIONS
     1 CALLS TO GCG PACKAGE FOR TRANSPORT TIME STEP 372 IN FLOW TIME STEP   1 STRESS PERIOD   1
     8 TOTAL ITERATIONS
 
 SOLVING FOR HEAD 


     2 CALLS TO PCG ROUTINE FOR TIME STEP   1 IN STRESS PERIOD    1
     9 TOTAL ITERATIONS

 MAXIMUM HEAD CHANGE FOR EACH ITERATION (1 INDICATES THE FIRST INNER ITERATION):

    HEAD CHANGE    HEAD CHANGE    HEAD CHANGE    HEAD CHANGE    HEAD CHANGE 
   LAYER,ROW,COL  LAYER,ROW,COL  LAYER,ROW,COL  LAYER,ROW,COL  LAYER,ROW,COL
 ---------------------------------------------------------------------------
  1  0.1335E-01  0 -0.3805E-02  0 -0.4050E-02  0 -0.9088E-02  0  0.1176E-01
   ( 15,  1, 86)  ( 17,  1, 89)  (  8,  1, 12)  ( 11,  1, 53)  ( 11,  1, 53)
  0 -0.2056E-02  0 -0.1317E-02  0 -0.6153E-03  1 -0.5195E-03
   ( 11,  1, 57)  ( 11,  1, 62)  ( 11,  1, 70)  ( 11,  1, 57)

 MAXIMUM RESIDUAL FOR EACH ITERATION (1 INDICATES THE FIRST INNER ITERATION):

    RESIDUAL       RESIDUAL       RESIDUAL       RESIDUAL       RESIDUAL    
   LAYER,ROW,COL  LAYER,ROW,COL  LAYER,ROW,COL  LAYER,ROW,COL  LAYER,ROW,COL
 ---------------------------------------------------------------------------
  1  0.1334E+06  0 -0.9388E+05  0 -0.8301E+05  0 -0.2189E+05  0  -5184.    
   ( 21,  1, 89)  ( 19,  1, 89)  ( 19,  1, 89)  ( 19,  1, 89)  ( 17,  1, 87)
  0   2840.      0   2484.      0   1039.      1   910.5    
   ( 22,  1, 87)  ( 22,  1, 87)  ( 22,  1, 87)  ( 22,  1, 87)


 FLOW MODEL IS TRANSIENT
 FLOW MODEL CONTAINS CONSTANT-HEAD CELLS


 MAXIMUM STEPSIZE DURING WHICH ANY PARTICLE CANNOT MOVE MORE THAN ONE CELL
 =  12.85    (WHEN MIN. R.F.=1)  AT K=  17, I=   1, J=  90

 MAXIMUM STEPSIZE WHICH MEETS STABILITY CRITERION OF THE ADVECTION TERM
 (FOR PURE FINITE-DIFFERENCE OPTION, MIXELM=0) 
 =  8.035    (WHEN MIN. R.F.=1)  AT K=  16, I=   1, J=  90


 TOTAL NUMBER OF POINT SOURCES/SINKS PRESENT IN THE FLOW MODEL =    30

 MAXIMUM STEPSIZE WHICH MEETS STABILITY CRITERION OF THE SINK & SOURCE TERM
 =  12.20    (WHEN MIN. R.F.=1)  AT K=  17, I=   1, J=  91

 MAXIMUM STEPSIZE WHICH MEETS STABILITY CRITERION OF THE DISPERSION TERM
 =  4.027    (WHEN MIN. R.F.=1)  AT K=  17, I=   1, J=  90
     1 CALLS TO GCG PACKAGE FOR TRANSPORT TIME STEP 373 IN FLOW TIME STEP   1 STRESS PERIOD   1
     8 TOTAL ITERATIONS
     1 CALLS TO GCG PACKAGE FOR TRANSPORT TIME STEP 373 IN FLOW TIME STEP   1 STRESS PERIOD   1
     8 TOTAL ITERATIONS
 
 SOLVING FOR HEAD 


     2 CALLS TO PCG ROUTINE FOR TIME STEP   1 IN STRESS PERIOD    1
     9 TOTAL ITERATIONS

 MAXIMUM HEAD CHANGE FOR EACH ITERATION (1 INDICATES THE FIRST INNER ITERATION):

    HEAD CHANGE    HEAD CHANGE    HEAD CHANGE    HEAD CHANGE    HEAD CHANGE 
   LAYER,ROW,COL  LAYER,ROW,COL  LAYER,ROW,COL  LAYER,ROW,COL  LAYER,ROW,COL
 ---------------------------------------------------------------------------
  1 -0.1352E-01  0  0.3762E-02  0  0.2848E-02  0  0.9238E-02  0 -0.9113E-02
   ( 15,  1, 86)  ( 17,  1, 89)  (  8,  1, 12)  (  8,  1, 46)  (  7,  1, 46)
  0 -0.1174E-02  0  0.1227E-02  0  0.8847E-03  1 -0.8252E-03
   ( 11,  1, 35)  ( 11,  1, 57)  ( 11,  1, 70)  ( 11,  1, 70)

 MAXIMUM RESIDUAL FOR EACH ITERATION (1 INDICATES THE FIRST INNER ITERATION):

    RESIDUAL       RESIDUAL       RESIDUAL       RESIDUAL       RESIDUAL    
   LAYER,ROW,COL  LAYER,ROW,COL  LAYER,ROW,COL  LAYER,ROW,COL  LAYER,ROW,COL
 ---------------------------------------------------------------------------
  1 -0.1335E+06  0  0.9387E+05  0  0.9283E+05  0  0.3668E+05  0   6041.    
   ( 21,  1, 89)  ( 19,  1, 89)  ( 19,  1, 89)  ( 19,  1, 89)  ( 17,  1, 87)
  0  -2834.      0  -2491.      0  -884.4      1  -747.5    
   ( 22,  1, 87)  ( 22,  1, 87)  ( 22,  1, 87)  ( 22,  1, 87)


 FLOW MODEL IS TRANSIENT
 FLOW MODEL CONTAINS CONSTANT-HEAD CELLS


 MAXIMUM STEPSIZE DURING WHICH ANY PARTICLE CANNOT MOVE MORE THAN ONE CELL
 =  13.21    (WHEN MIN. R.F.=1)  AT K=  17, I=   1, J=  90

 MAXIMUM STEPSIZE WHICH MEETS STABILITY CRITERION OF THE ADVECTION TERM
 (FOR PURE FINITE-DIFFERENCE OPTION, MIXELM=0) 
 =  8.000    (WHEN MIN. R.F.=1)  AT K=  16, I=   1, J=  90


 TOTAL NUMBER OF POINT SOURCES/SINKS PRESENT IN THE FLOW MODEL =    30

 MAXIMUM STEPSIZE WHICH MEETS STABILITY CRITERION OF THE SINK & SOURCE TERM
 =  12.16    (WHEN MIN. R.F.=1)  AT K=  17, I=   1, J=  91

 MAXIMUM STEPSIZE WHICH MEETS STABILITY CRITERION OF THE DISPERSION TERM
 =  4.359    (WHEN MIN. R.F.=1)  AT K=  17, I=   1, J=  90
     1 CALLS TO GCG PACKAGE FOR TRANSPORT TIME STEP 374 IN FLOW TIME STEP   1 STRESS PERIOD   1
     7 TOTAL ITERATIONS
     1 CALLS TO GCG PACKAGE FOR TRANSPORT TIME STEP 374 IN FLOW TIME STEP   1 STRESS PERIOD   1
     8 TOTAL ITERATIONS
 
 SOLVING FOR HEAD 


     2 CALLS TO PCG ROUTINE FOR TIME STEP   1 IN STRESS PERIOD    1
     9 TOTAL ITERATIONS

 MAXIMUM HEAD CHANGE FOR EACH ITERATION (1 INDICATES THE FIRST INNER ITERATION):

    HEAD CHANGE    HEAD CHANGE    HEAD CHANGE    HEAD CHANGE    HEAD CHANGE 
   LAYER,ROW,COL  LAYER,ROW,COL  LAYER,ROW,COL  LAYER,ROW,COL  LAYER,ROW,COL
 ---------------------------------------------------------------------------
  1  0.1353E-01  0 -0.3746E-02  0 -0.2491E-02  0 -0.1326E-01  0  0.1403E-01
   ( 15,  1, 86)  ( 17,  1, 89)  (  8,  1, 12)  ( 11,  1, 52)  ( 11,  1, 52)
  0 -0.1956E-02  0 -0.1207E-02  0 -0.5877E-03  1  0.4760E-03
   ( 11,  1, 49)  ( 11,  1, 64)  ( 11,  1, 41)  ( 11,  1, 41)

 MAXIMUM RESIDUAL FOR EACH ITERATION (1 INDICATES THE FIRST INNER ITERATION):

    RESIDUAL       RESIDUAL       RESIDUAL       RESIDUAL       RESIDUAL    
   LAYER,ROW,COL  LAYER,ROW,COL  LAYER,ROW,COL  LAYER,ROW,COL  LAYER,ROW,COL
 ---------------------------------------------------------------------------
  1  0.1319E+06  0 -0.9239E+05  0 -0.8964E+05  0 -0.2462E+05  0  -5243.    
   ( 21,  1, 89)  ( 19,  1, 89)  ( 19,  1, 89)  ( 19,  1, 89)  ( 17,  1, 87)
  0   2869.      0   2541.      0   1085.      1   967.9    
   ( 22,  1, 87)  ( 22,  1, 87)  ( 22,  1, 87)  ( 22,  1, 87)


 FLOW MODEL IS TRANSIENT
 FLOW MODEL CONTAINS CONSTANT-HEAD CELLS


 MAXIMUM STEPSIZE DURING WHICH ANY PARTICLE CANNOT MOVE MORE THAN ONE CELL
 =  12.86    (WHEN MIN. R.F.=1)  AT K=  17, I=   1, J=  90

 MAXIMUM STEPSIZE WHICH MEETS STABILITY CRITERION OF THE ADVECTION TERM
 (FOR PURE FINITE-DIFFERENCE OPTION, MIXELM=0) 
 =  8.036    (WHEN MIN. R.F.=1)  AT K=  16, I=   1, J=  90


 TOTAL NUMBER OF POINT SOURCES/SINKS PRESENT IN THE FLOW MODEL =    30

 MAXIMUM STEPSIZE WHICH MEETS STABILITY CRITERION OF THE SINK & SOURCE TERM
 =  12.20    (WHEN MIN. R.F.=1)  AT K=  17, I=   1, J=  91

 MAXIMUM STEPSIZE WHICH MEETS STABILITY CRITERION OF THE DISPERSION TERM
 =  4.032    (WHEN MIN. R.F.=1)  AT K=  17, I=   1, J=  90
     1 CALLS TO GCG PACKAGE FOR TRANSPORT TIME STEP 375 IN FLOW TIME STEP   1 STRESS PERIOD   1
     8 TOTAL ITERATIONS
  MAXIMUM CONCENTRATION CHANGES FOR EACH ITERATION:
  MAX. CHANGE LAYER,ROW,COL MAX. CHANGE LAYER,ROW,COL MAX. CHANGE LAYER,ROW,COL MAX. CHANGE LAYER,ROW,COL MAX. CHANGE LAYER,ROW,COL
 ------------------------------------------------------------------------------------------------------------------------------------
   0.5254E-01 ( 20,  1, 87)  0.4197E-02 ( 19,  1, 89)  0.2142E-02 ( 18,  1, 86)  0.4734E-03 ( 20,  1, 89)  0.9553E-04 ( 16,  1, 89)
   0.1993E-04 ( 20,  1, 89)  0.1776E-04 ( 16,  1, 90)  0.7411E-06 ( 17,  1, 90)
     1 CALLS TO GCG PACKAGE FOR TRANSPORT TIME STEP 375 IN FLOW TIME STEP   1 STRESS PERIOD   1
     8 TOTAL ITERATIONS
  MAXIMUM CONCENTRATION CHANGES FOR EACH ITERATION:
  MAX. CHANGE LAYER,ROW,COL MAX. CHANGE LAYER,ROW,COL MAX. CHANGE LAYER,ROW,COL MAX. CHANGE LAYER,ROW,COL MAX. CHANGE LAYER,ROW,COL
 ------------------------------------------------------------------------------------------------------------------------------------
   0.6121E-01 ( 20,  1, 87)  0.4815E-02 ( 19,  1, 89)  0.2061E-02 ( 18,  1, 86)  0.5334E-03 ( 19,  1, 89)  0.1172E-03 ( 16,  1, 89)
   0.2715E-04 ( 23,  1, 87)  0.1468E-04 ( 17,  1, 90)  0.9134E-06 ( 17,  1, 90)
 
 SOLVING FOR HEAD 


     3 CALLS TO PCG ROUTINE FOR TIME STEP   1 IN STRESS PERIOD    1
    11 TOTAL ITERATIONS

 MAXIMUM HEAD CHANGE FOR EACH ITERATION (1 INDICATES THE FIRST INNER ITERATION):

    HEAD CHANGE    HEAD CHANGE    HEAD CHANGE    HEAD CHANGE    HEAD CHANGE 
   LAYER,ROW,COL  LAYER,ROW,COL  LAYER,ROW,COL  LAYER,ROW,COL  LAYER,ROW,COL
 ---------------------------------------------------------------------------
  1 -0.1350E-01  0  0.3727E-02  0  0.2610E-02  0  0.8793E-02  0 -0.8854E-02
   ( 15,  1, 86)  ( 17,  1, 89)  (  8,  1, 12)  (  8,  1, 46)  (  8,  1, 46)
  0 -0.1127E-02  0  0.1038E-02  0  0.8858E-03  1 -0.1124E-02  0 -0.2282E-03
   ( 11,  1, 51)  ( 11,  1, 52)  ( 11,  1, 70)  ( 11,  1, 70)  ( 11,  1, 55)
  1  0.6715E-04
   ( 11,  1, 53)

 MAXIMUM RESIDUAL FOR EACH ITERATION (1 INDICATES THE FIRST INNER ITERATION):

    RESIDUAL       RESIDUAL       RESIDUAL       RESIDUAL       RESIDUAL    
   LAYER,ROW,COL  LAYER,ROW,COL  LAYER,ROW,COL  LAYER,ROW,COL  LAYER,ROW,COL
 ---------------------------------------------------------------------------
  1 -0.1329E+06  0  0.9380E+05  0  0.9264E+05  0  0.3334E+05  0   5929.    
   ( 21,  1, 89)  ( 19,  1, 89)  ( 19,  1, 89)  ( 19,  1, 89)  ( 17,  1, 87)
  0  -2846.      0  -2374.      0  -865.5      1  -708.3      0  -583.3    
   ( 22,  1, 87)  ( 22,  1, 87)  ( 22,  1, 87)  ( 22,  1, 87)  ( 22,  1, 87)
  1  -547.6    
   ( 22,  1, 87)


 FLOW MODEL IS TRANSIENT
 FLOW MODEL CONTAINS CONSTANT-HEAD CELLS


 MAXIMUM STEPSIZE DURING WHICH ANY PARTICLE CANNOT MOVE MORE THAN ONE CELL
 =  13.20    (WHEN MIN. R.F.=1)  AT K=  17, I=   1, J=  90

 MAXIMUM STEPSIZE WHICH MEETS STABILITY CRITERION OF THE ADVECTION TERM
 (FOR PURE FINITE-DIFFERENCE OPTION, MIXELM=0) 
 =  7.998    (WHEN MIN. R.F.=1)  AT K=  16, I=   1, J=  90


 TOTAL NUMBER OF POINT SOURCES/SINKS PRESENT IN THE FLOW MODEL =    30

 MAXIMUM STEPSIZE WHICH MEETS STABILITY CRITERION OF THE SINK & SOURCE TERM
 =  12.16    (WHEN MIN. R.F.=1)  AT K=  17, I=   1, J=  91

 MAXIMUM STEPSIZE WHICH MEETS STABILITY CRITERION OF THE DISPERSION TERM
 =  4.353    (WHEN MIN. R.F.=1)  AT K=  17, I=   1, J=  90
     1 CALLS TO GCG PACKAGE FOR TRANSPORT TIME STEP 376 IN FLOW TIME STEP   1 STRESS PERIOD   1
     7 TOTAL ITERATIONS
     1 CALLS TO GCG PACKAGE FOR TRANSPORT TIME STEP 376 IN FLOW TIME STEP   1 STRESS PERIOD   1
     8 TOTAL ITERATIONS
 
 SOLVING FOR HEAD 


     3 CALLS TO PCG ROUTINE FOR TIME STEP   1 IN STRESS PERIOD    1
    10 TOTAL ITERATIONS

 MAXIMUM HEAD CHANGE FOR EACH ITERATION (1 INDICATES THE FIRST INNER ITERATION):

    HEAD CHANGE    HEAD CHANGE    HEAD CHANGE    HEAD CHANGE    HEAD CHANGE 
   LAYER,ROW,COL  LAYER,ROW,COL  LAYER,ROW,COL  LAYER,ROW,COL  LAYER,ROW,COL
 ---------------------------------------------------------------------------
  1  0.1353E-01  0 -0.1984E-01  0  0.1765E-01  0 -0.2272E-02  0  0.1706E-02
   ( 15,  1, 86)  (  8,  1, 12)  (  8,  1, 12)  ( 15,  1, 87)  ( 11,  1, 68)
  0 -0.1267E-02  0 -0.9308E-03  1  0.1012E-02  0  0.2735E-03  1 -0.3004E-03
   ( 11,  1, 69)  ( 11,  1, 70)  ( 11,  1, 70)  ( 11,  1, 64)  ( 11,  1, 70)

 MAXIMUM RESIDUAL FOR EACH ITERATION (1 INDICATES THE FIRST INNER ITERATION):

    RESIDUAL       RESIDUAL       RESIDUAL       RESIDUAL       RESIDUAL    
   LAYER,ROW,COL  LAYER,ROW,COL  LAYER,ROW,COL  LAYER,ROW,COL  LAYER,ROW,COL
 ---------------------------------------------------------------------------
  1  0.1319E+06  0  0.9652E+05  0 -0.9129E+05  0 -0.1172E+05  0   3117.    
   ( 21,  1, 89)  ( 21,  1, 89)  ( 19,  1, 89)  ( 17,  1, 87)  ( 22,  1, 87)
  0   2788.      0   1404.      1   1177.      0   953.2      1   851.2    
   ( 22,  1, 87)  ( 22,  1, 87)  ( 22,  1, 87)  ( 22,  1, 87)  ( 22,  1, 87)


 FLOW MODEL IS TRANSIENT
 FLOW MODEL CONTAINS CONSTANT-HEAD CELLS


 MAXIMUM STEPSIZE DURING WHICH ANY PARTICLE CANNOT MOVE MORE THAN ONE CELL
 =  12.85    (WHEN MIN. R.F.=1)  AT K=  17, I=   1, J=  90

 MAXIMUM STEPSIZE WHICH MEETS STABILITY CRITERION OF THE ADVECTION TERM
 (FOR PURE FINITE-DIFFERENCE OPTION, MIXELM=0) 
 =  8.032    (WHEN MIN. R.F.=1)  AT K=  16, I=   1, J=  90


 TOTAL NUMBER OF POINT SOURCES/SINKS PRESENT IN THE FLOW MODEL =    30

 MAXIMUM STEPSIZE WHICH MEETS STABILITY CRITERION OF THE SINK & SOURCE TERM
 =  12.20    (WHEN MIN. R.F.=1)  AT K=  17, I=   1, J=  91

 MAXIMUM STEPSIZE WHICH MEETS STABILITY CRITERION OF THE DISPERSION TERM
 =  4.030    (WHEN MIN. R.F.=1)  AT K=  17, I=   1, J=  90
     1 CALLS TO GCG PACKAGE FOR TRANSPORT TIME STEP 377 IN FLOW TIME STEP   1 STRESS PERIOD   1
     8 TOTAL ITERATIONS
     1 CALLS TO GCG PACKAGE FOR TRANSPORT TIME STEP 377 IN FLOW TIME STEP   1 STRESS PERIOD   1
     8 TOTAL ITERATIONS
 
 SOLVING FOR HEAD 


     2 CALLS TO PCG ROUTINE FOR TIME STEP   1 IN STRESS PERIOD    1
     8 TOTAL ITERATIONS

 MAXIMUM HEAD CHANGE FOR EACH ITERATION (1 INDICATES THE FIRST INNER ITERATION):

    HEAD CHANGE    HEAD CHANGE    HEAD CHANGE    HEAD CHANGE    HEAD CHANGE 
   LAYER,ROW,COL  LAYER,ROW,COL  LAYER,ROW,COL  LAYER,ROW,COL  LAYER,ROW,COL
 ---------------------------------------------------------------------------
  1 -0.1346E-01  0 -0.1933E-01  0  0.1578E-01  0  0.7039E-02  0 -0.7394E-02
   ( 15,  1, 86)  (  8,  1, 12)  (  8,  1, 12)  (  8,  1, 48)  (  7,  1, 48)
  0 -0.1129E-02  0  0.9584E-03  1 -0.7226E-03
   ( 11,  1, 36)  ( 11,  1, 70)  ( 11,  1, 57)

 MAXIMUM RESIDUAL FOR EACH ITERATION (1 INDICATES THE FIRST INNER ITERATION):

    RESIDUAL       RESIDUAL       RESIDUAL       RESIDUAL       RESIDUAL    
   LAYER,ROW,COL  LAYER,ROW,COL  LAYER,ROW,COL  LAYER,ROW,COL  LAYER,ROW,COL
 ---------------------------------------------------------------------------
  1 -0.1321E+06  0 -0.1119E+06  0  0.9200E+05  0  0.2253E+05  0   5583.    
   ( 21,  1, 89)  ( 21,  1, 89)  ( 19,  1, 89)  ( 19,  1, 89)  ( 17,  1, 87)
  0  -2846.      0  -1701.      1  -1482.    
   ( 22,  1, 87)  ( 22,  1, 87)  ( 22,  1, 87)


 FLOW MODEL IS TRANSIENT
 FLOW MODEL CONTAINS CONSTANT-HEAD CELLS


 MAXIMUM STEPSIZE DURING WHICH ANY PARTICLE CANNOT MOVE MORE THAN ONE CELL
 =  13.20    (WHEN MIN. R.F.=1)  AT K=  17, I=   1, J=  90

 MAXIMUM STEPSIZE WHICH MEETS STABILITY CRITERION OF THE ADVECTION TERM
 (FOR PURE FINITE-DIFFERENCE OPTION, MIXELM=0) 
 =  7.999    (WHEN MIN. R.F.=1)  AT K=  16, I=   1, J=  90


 TOTAL NUMBER OF POINT SOURCES/SINKS PRESENT IN THE FLOW MODEL =    30

 MAXIMUM STEPSIZE WHICH MEETS STABILITY CRITERION OF THE SINK & SOURCE TERM
 =  12.15    (WHEN MIN. R.F.=1)  AT K=  17, I=   1, J=  91

 MAXIMUM STEPSIZE WHICH MEETS STABILITY CRITERION OF THE DISPERSION TERM
 =  4.351    (WHEN MIN. R.F.=1)  AT K=  17, I=   1, J=  90
     1 CALLS TO GCG PACKAGE FOR TRANSPORT TIME STEP 378 IN FLOW TIME STEP   1 STRESS PERIOD   1
    10 TOTAL ITERATIONS
     1 CALLS TO GCG PACKAGE FOR TRANSPORT TIME STEP 378 IN FLOW TIME STEP   1 STRESS PERIOD   1
     8 TOTAL ITERATIONS
 
 SOLVING FOR HEAD 


     2 CALLS TO PCG ROUTINE FOR TIME STEP   1 IN STRESS PERIOD    1
     8 TOTAL ITERATIONS

 MAXIMUM HEAD CHANGE FOR EACH ITERATION (1 INDICATES THE FIRST INNER ITERATION):

    HEAD CHANGE    HEAD CHANGE    HEAD CHANGE    HEAD CHANGE    HEAD CHANGE 
   LAYER,ROW,COL  LAYER,ROW,COL  LAYER,ROW,COL  LAYER,ROW,COL  LAYER,ROW,COL
 ---------------------------------------------------------------------------
  1  0.1364E-01  0 -0.3861E-02  0 -0.3122E-02  0  0.1360E-01  0 -0.1253E-01
   ( 15,  1, 86)  ( 17,  1, 89)  (  8,  1, 12)  ( 11,  1, 54)  ( 11,  1, 54)
  0 -0.1263E-02  0 -0.5484E-03  1 -0.4725E-03
   ( 11,  1, 68)  ( 11,  1, 40)  (  7,  1, 48)

 MAXIMUM RESIDUAL FOR EACH ITERATION (1 INDICATES THE FIRST INNER ITERATION):

    RESIDUAL       RESIDUAL       RESIDUAL       RESIDUAL       RESIDUAL    
   LAYER,ROW,COL  LAYER,ROW,COL  LAYER,ROW,COL  LAYER,ROW,COL  LAYER,ROW,COL
 ---------------------------------------------------------------------------
  1  0.1319E+06  0 -0.9300E+05  0 -0.9206E+05  0 -0.4322E+05  0  -5426.    
   ( 21,  1, 89)  ( 19,  1, 89)  ( 19,  1, 89)  ( 19,  1, 89)  ( 17,  1, 87)
  0   2845.      0   2526.      1   2122.    
   ( 22,  1, 87)  ( 22,  1, 87)  ( 22,  1, 87)


 FLOW MODEL IS TRANSIENT
 FLOW MODEL CONTAINS CONSTANT-HEAD CELLS


 MAXIMUM STEPSIZE DURING WHICH ANY PARTICLE CANNOT MOVE MORE THAN ONE CELL
 =  12.88    (WHEN MIN. R.F.=1)  AT K=  17, I=   1, J=  90

 MAXIMUM STEPSIZE WHICH MEETS STABILITY CRITERION OF THE ADVECTION TERM
 (FOR PURE FINITE-DIFFERENCE OPTION, MIXELM=0) 
 =  8.042    (WHEN MIN. R.F.=1)  AT K=  16, I=   1, J=  90


 TOTAL NUMBER OF POINT SOURCES/SINKS PRESENT IN THE FLOW MODEL =    30

 MAXIMUM STEPSIZE WHICH MEETS STABILITY CRITERION OF THE SINK & SOURCE TERM
 =  12.24    (WHEN MIN. R.F.=1)  AT K=  17, I=   1, J=  91

 MAXIMUM STEPSIZE WHICH MEETS STABILITY CRITERION OF THE DISPERSION TERM
 =  4.040    (WHEN MIN. R.F.=1)  AT K=  17, I=   1, J=  90
     1 CALLS TO GCG PACKAGE FOR TRANSPORT TIME STEP 379 IN FLOW TIME STEP   1 STRESS PERIOD   1
     8 TOTAL ITERATIONS
     1 CALLS TO GCG PACKAGE FOR TRANSPORT TIME STEP 379 IN FLOW TIME STEP   1 STRESS PERIOD   1
     8 TOTAL ITERATIONS
 
 SOLVING FOR HEAD 


     2 CALLS TO PCG ROUTINE FOR TIME STEP   1 IN STRESS PERIOD    1
     9 TOTAL ITERATIONS

 MAXIMUM HEAD CHANGE FOR EACH ITERATION (1 INDICATES THE FIRST INNER ITERATION):

    HEAD CHANGE    HEAD CHANGE    HEAD CHANGE    HEAD CHANGE    HEAD CHANGE 
   LAYER,ROW,COL  LAYER,ROW,COL  LAYER,ROW,COL  LAYER,ROW,COL  LAYER,ROW,COL
 ---------------------------------------------------------------------------
  1 -0.1379E-01  0 -0.7342E-02  0  0.4500E-02  0  0.9450E-02  0 -0.6583E-02
   ( 15,  1, 86)  (  7,  1, 46)  (  7,  1, 12)  ( 10,  1, 50)  (  9,  1, 50)
  0  0.2295E-02  0  0.1383E-02  0  0.7125E-03  1 -0.6591E-03
   ( 11,  1, 67)  ( 11,  1, 57)  ( 11,  1, 70)  ( 11,  1, 70)

 MAXIMUM RESIDUAL FOR EACH ITERATION (1 INDICATES THE FIRST INNER ITERATION):

    RESIDUAL       RESIDUAL       RESIDUAL       RESIDUAL       RESIDUAL    
   LAYER,ROW,COL  LAYER,ROW,COL  LAYER,ROW,COL  LAYER,ROW,COL  LAYER,ROW,COL
 ---------------------------------------------------------------------------
  1 -0.1345E+06  0  0.9548E+05  0  0.9481E+05  0  0.7544E+05  0   5928.    
   ( 21,  1, 89)  ( 19,  1, 89)  ( 19,  1, 89)  ( 19,  1, 89)  ( 17,  1, 87)
  0  -2838.      0  -2617.      0  -935.8      1  -819.2    
   ( 22,  1, 87)  ( 22,  1, 87)  ( 22,  1, 87)  ( 22,  1, 87)


 FLOW MODEL IS TRANSIENT
 FLOW MODEL CONTAINS CONSTANT-HEAD CELLS


 MAXIMUM STEPSIZE DURING WHICH ANY PARTICLE CANNOT MOVE MORE THAN ONE CELL
 =  13.18    (WHEN MIN. R.F.=1)  AT K=  17, I=   1, J=  90

 MAXIMUM STEPSIZE WHICH MEETS STABILITY CRITERION OF THE ADVECTION TERM
 (FOR PURE FINITE-DIFFERENCE OPTION, MIXELM=0) 
 =  7.985    (WHEN MIN. R.F.=1)  AT K=  16, I=   1, J=  90


 TOTAL NUMBER OF POINT SOURCES/SINKS PRESENT IN THE FLOW MODEL =    30

 MAXIMUM STEPSIZE WHICH MEETS STABILITY CRITERION OF THE SINK & SOURCE TERM
 =  12.13    (WHEN MIN. R.F.=1)  AT K=  17, I=   1, J=  91

 MAXIMUM STEPSIZE WHICH MEETS STABILITY CRITERION OF THE DISPERSION TERM
 =  4.350    (WHEN MIN. R.F.=1)  AT K=  17, I=   1, J=  90
     1 CALLS TO GCG PACKAGE FOR TRANSPORT TIME STEP 380 IN FLOW TIME STEP   1 STRESS PERIOD   1
     9 TOTAL ITERATIONS
  MAXIMUM CONCENTRATION CHANGES FOR EACH ITERATION:
  MAX. CHANGE LAYER,ROW,COL MAX. CHANGE LAYER,ROW,COL MAX. CHANGE LAYER,ROW,COL MAX. CHANGE LAYER,ROW,COL MAX. CHANGE LAYER,ROW,COL
 ------------------------------------------------------------------------------------------------------------------------------------
   0.4889E-01 ( 20,  1, 87)  0.3291E-02 ( 19,  1, 87)  0.2153E-02 ( 18,  1, 87)  0.2116E-03 ( 16,  1, 88)  0.1411E-03 ( 17,  1, 89)
   0.2858E-04 ( 16,  1, 90)  0.1580E-05 ( 21,  1, 78)  0.3030E-05 ( 21,  1, 78)  0.7805E-06 ( 16,  1, 89)
     1 CALLS TO GCG PACKAGE FOR TRANSPORT TIME STEP 380 IN FLOW TIME STEP   1 STRESS PERIOD   1
     8 TOTAL ITERATIONS
  MAXIMUM CONCENTRATION CHANGES FOR EACH ITERATION:
  MAX. CHANGE LAYER,ROW,COL MAX. CHANGE LAYER,ROW,COL MAX. CHANGE LAYER,ROW,COL MAX. CHANGE LAYER,ROW,COL MAX. CHANGE LAYER,ROW,COL
 ------------------------------------------------------------------------------------------------------------------------------------
   0.5664E-01 ( 20,  1, 87)  0.4496E-02 ( 19,  1, 87)  0.2279E-02 ( 18,  1, 87)  0.3681E-03 ( 18,  1, 87)  0.1395E-03 ( 17,  1, 89)
   0.3799E-04 ( 17,  1, 90)  0.5749E-05 ( 17,  1, 90)  0.5823E-06 ( 16,  1, 89)



 >>>>>>>>>>>>>>>>>>>>>>>>>>>>>>>>>>>>>>>>>>>>>>>>>>>>>>>FOR COMPONENT NO. 01<<<<<<<<<<<<<<<<<<<<<<<<<<<<<<<<<<<<<<<<<<<<<<<<<<<<<<<


                                            -------------------------------------------
                                                      TRANSPORT STEP NO.  380
                                            -------------------------------------------

 TOTAL ELAPSED TIME SINCE BEGINNING OF SIMULATION =   19000.00    D   
 .....................................................................

                     CUMMULATIVE MASS BUDGETS AT END OF TRANSPORT STEP  380, TIME STEP    1, STRESS PERIOD    1
                     ------------------------------------------------------------------------------------------

                                                             IN                           OUT
                                                      ----------------             ----------------
                               CONSTANT CONCENTRATION:    0.000000                    0.000000    
                                        CONSTANT HEAD:   0.7520338E+09              -0.7518344E+09
                                                WELLS:    0.000000                    0.000000    
                                             RECHARGE:    0.000000                    0.000000    
                               1ST/0TH ORDER REACTION:    0.000000                    0.000000    
                                MASS STORAGE (SOLUTE):   0.1051648E+09              -0.1053643E+09
                            ---------------------------------------------------------------------------
                                              [TOTAL]:   0.8571994E+09 KG           -0.8571996E+09 KG  

                                                          NET (IN - OUT):   -137.6185    
                                                   DISCREPANCY (PERCENT):  -0.1605443E-04



 >>>>>>>>>>>>>>>>>>>>>>>>>>>>>>>>>>>>>>>>>>>>>>>>>>>>>>>FOR COMPONENT NO. 02<<<<<<<<<<<<<<<<<<<<<<<<<<<<<<<<<<<<<<<<<<<<<<<<<<<<<<<


                                            -------------------------------------------
                                                      TRANSPORT STEP NO.  380
                                            -------------------------------------------

 TOTAL ELAPSED TIME SINCE BEGINNING OF SIMULATION =   19000.00    D   
 .....................................................................

                     CUMMULATIVE MASS BUDGETS AT END OF TRANSPORT STEP  380, TIME STEP    1, STRESS PERIOD    1
                     ------------------------------------------------------------------------------------------

                                                             IN                           OUT
                                                      ----------------             ----------------
                               CONSTANT CONCENTRATION:    0.000000                    0.000000    
                                        CONSTANT HEAD:    0.000000                  -0.9400456E+11
                                                WELLS:    0.000000                    0.000000    
                                             RECHARGE:    0.000000                    0.000000    
                               1ST/0TH ORDER REACTION:   0.3144500E+12                0.000000    
                                MASS STORAGE (SOLUTE):   0.2658304E+11              -0.2470285E+12
                            ---------------------------------------------------------------------------
                                              [TOTAL]:   0.3410335E+12 KG           -0.3410335E+12 KG  

                                                          NET (IN - OUT):   -27555.42    
                                                   DISCREPANCY (PERCENT):  -0.8079975E-05
 
 SOLVING FOR HEAD 


     2 CALLS TO PCG ROUTINE FOR TIME STEP   1 IN STRESS PERIOD    1
     9 TOTAL ITERATIONS

 MAXIMUM HEAD CHANGE FOR EACH ITERATION (1 INDICATES THE FIRST INNER ITERATION):

    HEAD CHANGE    HEAD CHANGE    HEAD CHANGE    HEAD CHANGE    HEAD CHANGE 
   LAYER,ROW,COL  LAYER,ROW,COL  LAYER,ROW,COL  LAYER,ROW,COL  LAYER,ROW,COL
 ---------------------------------------------------------------------------
  1  0.1349E-01  0 -0.4012E-02  0 -0.2545E-02  0 -0.1034E-01  0  0.1160E-01
   ( 15,  1, 86)  ( 17,  1, 89)  (  8,  1, 12)  ( 11,  1, 52)  ( 11,  1, 52)
  0 -0.1868E-02  0 -0.1145E-02  0 -0.7099E-03  1  0.4149E-03
   ( 11,  1, 51)  ( 11,  1, 65)  ( 11,  1, 58)  ( 11,  1, 56)

 MAXIMUM RESIDUAL FOR EACH ITERATION (1 INDICATES THE FIRST INNER ITERATION):

    RESIDUAL       RESIDUAL       RESIDUAL       RESIDUAL       RESIDUAL    
   LAYER,ROW,COL  LAYER,ROW,COL  LAYER,ROW,COL  LAYER,ROW,COL  LAYER,ROW,COL
 ---------------------------------------------------------------------------
  1  0.1349E+06  0 -0.9626E+05  0 -0.9497E+05  0 -0.2323E+05  0   5146.    
   ( 21,  1, 89)  ( 19,  1, 89)  ( 19,  1, 89)  ( 19,  1, 89)  ( 17,  1, 88)
  0   2750.      0   2333.      0   705.1      1   596.2    
   ( 22,  1, 87)  ( 22,  1, 87)  ( 22,  1, 87)  ( 22,  1, 87)


 FLOW MODEL IS TRANSIENT
 FLOW MODEL CONTAINS CONSTANT-HEAD CELLS


 MAXIMUM STEPSIZE DURING WHICH ANY PARTICLE CANNOT MOVE MORE THAN ONE CELL
 =  12.84    (WHEN MIN. R.F.=1)  AT K=  17, I=   1, J=  90

 MAXIMUM STEPSIZE WHICH MEETS STABILITY CRITERION OF THE ADVECTION TERM
 (FOR PURE FINITE-DIFFERENCE OPTION, MIXELM=0) 
 =  8.030    (WHEN MIN. R.F.=1)  AT K=  16, I=   1, J=  90


 TOTAL NUMBER OF POINT SOURCES/SINKS PRESENT IN THE FLOW MODEL =    30

 MAXIMUM STEPSIZE WHICH MEETS STABILITY CRITERION OF THE SINK & SOURCE TERM
 =  12.19    (WHEN MIN. R.F.=1)  AT K=  17, I=   1, J=  91

 MAXIMUM STEPSIZE WHICH MEETS STABILITY CRITERION OF THE DISPERSION TERM
 =  4.019    (WHEN MIN. R.F.=1)  AT K=  17, I=   1, J=  90
     1 CALLS TO GCG PACKAGE FOR TRANSPORT TIME STEP 381 IN FLOW TIME STEP   1 STRESS PERIOD   1
     8 TOTAL ITERATIONS
     1 CALLS TO GCG PACKAGE FOR TRANSPORT TIME STEP 381 IN FLOW TIME STEP   1 STRESS PERIOD   1
     8 TOTAL ITERATIONS
 
 SOLVING FOR HEAD 


     2 CALLS TO PCG ROUTINE FOR TIME STEP   1 IN STRESS PERIOD    1
     8 TOTAL ITERATIONS

 MAXIMUM HEAD CHANGE FOR EACH ITERATION (1 INDICATES THE FIRST INNER ITERATION):

    HEAD CHANGE    HEAD CHANGE    HEAD CHANGE    HEAD CHANGE    HEAD CHANGE 
   LAYER,ROW,COL  LAYER,ROW,COL  LAYER,ROW,COL  LAYER,ROW,COL  LAYER,ROW,COL
 ---------------------------------------------------------------------------
  1 -0.1337E-01  0  0.3676E-02  0  0.2462E-02  0  0.7436E-02  0 -0.7594E-02
   ( 15,  1, 86)  ( 17,  1, 89)  (  7,  1, 12)  (  7,  1, 40)  (  7,  1, 41)
  0 -0.1647E-02  0  0.9283E-03  1  0.7818E-03
   ( 11,  1, 49)  ( 11,  1, 49)  ( 11,  1, 57)

 MAXIMUM RESIDUAL FOR EACH ITERATION (1 INDICATES THE FIRST INNER ITERATION):

    RESIDUAL       RESIDUAL       RESIDUAL       RESIDUAL       RESIDUAL    
   LAYER,ROW,COL  LAYER,ROW,COL  LAYER,ROW,COL  LAYER,ROW,COL  LAYER,ROW,COL
 ---------------------------------------------------------------------------
  1 -0.1299E+06  0  0.9054E+05  0  0.8933E+05  0  0.3388E+05  0   6105.    
   ( 21,  1, 89)  ( 19,  1, 89)  ( 19,  1, 89)  ( 19,  1, 89)  ( 17,  1, 87)
  0  -2853.      0  -2578.      1  -1940.    
   ( 22,  1, 87)  ( 22,  1, 87)  ( 22,  1, 87)


 FLOW MODEL IS TRANSIENT
 FLOW MODEL CONTAINS CONSTANT-HEAD CELLS


 MAXIMUM STEPSIZE DURING WHICH ANY PARTICLE CANNOT MOVE MORE THAN ONE CELL
 =  13.24    (WHEN MIN. R.F.=1)  AT K=  17, I=   1, J=  90

 MAXIMUM STEPSIZE WHICH MEETS STABILITY CRITERION OF THE ADVECTION TERM
 (FOR PURE FINITE-DIFFERENCE OPTION, MIXELM=0) 
 =  8.011    (WHEN MIN. R.F.=1)  AT K=  16, I=   1, J=  90


 TOTAL NUMBER OF POINT SOURCES/SINKS PRESENT IN THE FLOW MODEL =    30

 MAXIMUM STEPSIZE WHICH MEETS STABILITY CRITERION OF THE SINK & SOURCE TERM
 =  12.18    (WHEN MIN. R.F.=1)  AT K=  17, I=   1, J=  91

 MAXIMUM STEPSIZE WHICH MEETS STABILITY CRITERION OF THE DISPERSION TERM
 =  4.371    (WHEN MIN. R.F.=1)  AT K=  17, I=   1, J=  90
     1 CALLS TO GCG PACKAGE FOR TRANSPORT TIME STEP 382 IN FLOW TIME STEP   1 STRESS PERIOD   1
    10 TOTAL ITERATIONS
     1 CALLS TO GCG PACKAGE FOR TRANSPORT TIME STEP 382 IN FLOW TIME STEP   1 STRESS PERIOD   1
     8 TOTAL ITERATIONS
 
 SOLVING FOR HEAD 


     2 CALLS TO PCG ROUTINE FOR TIME STEP   1 IN STRESS PERIOD    1
     8 TOTAL ITERATIONS

 MAXIMUM HEAD CHANGE FOR EACH ITERATION (1 INDICATES THE FIRST INNER ITERATION):

    HEAD CHANGE    HEAD CHANGE    HEAD CHANGE    HEAD CHANGE    HEAD CHANGE 
   LAYER,ROW,COL  LAYER,ROW,COL  LAYER,ROW,COL  LAYER,ROW,COL  LAYER,ROW,COL
 ---------------------------------------------------------------------------
  1  0.1365E-01  0  0.8579E-02  0 -0.3237E-02  0 -0.1184E-01  0  0.7707E-02
   ( 15,  1, 86)  ( 11,  1, 57)  (  8,  1, 12)  ( 11,  1, 57)  ( 11,  1, 58)
  0  0.2855E-02  0 -0.8763E-03  1 -0.9242E-03
   ( 11,  1, 35)  ( 11,  1, 56)  ( 11,  1, 70)

 MAXIMUM RESIDUAL FOR EACH ITERATION (1 INDICATES THE FIRST INNER ITERATION):

    RESIDUAL       RESIDUAL       RESIDUAL       RESIDUAL       RESIDUAL    
   LAYER,ROW,COL  LAYER,ROW,COL  LAYER,ROW,COL  LAYER,ROW,COL  LAYER,ROW,COL
 ---------------------------------------------------------------------------
  1  0.1337E+06  0 -0.9416E+05  0 -0.9317E+05  0 -0.7259E+05  0  -6147.    
   ( 21,  1, 89)  ( 19,  1, 89)  ( 19,  1, 89)  ( 19,  1, 89)  ( 17,  1, 87)
  0   3132.      0   2615.      1   1515.    
   ( 17,  1, 88)  ( 22,  1, 87)  ( 22,  1, 87)


 FLOW MODEL IS TRANSIENT
 FLOW MODEL CONTAINS CONSTANT-HEAD CELLS


 MAXIMUM STEPSIZE DURING WHICH ANY PARTICLE CANNOT MOVE MORE THAN ONE CELL
 =  12.92    (WHEN MIN. R.F.=1)  AT K=  17, I=   1, J=  90

 MAXIMUM STEPSIZE WHICH MEETS STABILITY CRITERION OF THE ADVECTION TERM
 (FOR PURE FINITE-DIFFERENCE OPTION, MIXELM=0) 
 =  8.062    (WHEN MIN. R.F.=1)  AT K=  16, I=   1, J=  90


 TOTAL NUMBER OF POINT SOURCES/SINKS PRESENT IN THE FLOW MODEL =    30

 MAXIMUM STEPSIZE WHICH MEETS STABILITY CRITERION OF THE SINK & SOURCE TERM
 =  12.30    (WHEN MIN. R.F.=1)  AT K=  17, I=   1, J=  91

 MAXIMUM STEPSIZE WHICH MEETS STABILITY CRITERION OF THE DISPERSION TERM
 =  4.055    (WHEN MIN. R.F.=1)  AT K=  17, I=   1, J=  90
     1 CALLS TO GCG PACKAGE FOR TRANSPORT TIME STEP 383 IN FLOW TIME STEP   1 STRESS PERIOD   1
     8 TOTAL ITERATIONS
     1 CALLS TO GCG PACKAGE FOR TRANSPORT TIME STEP 383 IN FLOW TIME STEP   1 STRESS PERIOD   1
     8 TOTAL ITERATIONS
 
 SOLVING FOR HEAD 


     2 CALLS TO PCG ROUTINE FOR TIME STEP   1 IN STRESS PERIOD    1
     9 TOTAL ITERATIONS

 MAXIMUM HEAD CHANGE FOR EACH ITERATION (1 INDICATES THE FIRST INNER ITERATION):

    HEAD CHANGE    HEAD CHANGE    HEAD CHANGE    HEAD CHANGE    HEAD CHANGE 
   LAYER,ROW,COL  LAYER,ROW,COL  LAYER,ROW,COL  LAYER,ROW,COL  LAYER,ROW,COL
 ---------------------------------------------------------------------------
  1 -0.1365E-01  0 -0.1125E-01  0  0.4961E-02  0  0.1467E-01  0 -0.9332E-02
   ( 15,  1, 86)  ( 11,  1, 69)  (  8,  1, 12)  ( 11,  1, 69)  ( 11,  1, 68)
  0  0.5482E-02  0 -0.1434E-02  0  0.9598E-03  1 -0.7300E-03
   ( 11,  1, 61)  ( 11,  1, 60)  ( 11,  1, 56)  ( 11,  1, 55)

 MAXIMUM RESIDUAL FOR EACH ITERATION (1 INDICATES THE FIRST INNER ITERATION):

    RESIDUAL       RESIDUAL       RESIDUAL       RESIDUAL       RESIDUAL    
   LAYER,ROW,COL  LAYER,ROW,COL  LAYER,ROW,COL  LAYER,ROW,COL  LAYER,ROW,COL
 ---------------------------------------------------------------------------
  1 -0.1375E+06  0  0.9765E+05  0  0.9704E+05  0  0.7673E+05  0   6772.    
   ( 21,  1, 89)  ( 19,  1, 89)  ( 19,  1, 89)  ( 19,  1, 89)  ( 17,  1, 87)
  0  -3311.      0  -2562.      0  -1756.      1  -1551.    
   ( 17,  1, 88)  ( 22,  1, 87)  ( 22,  1, 87)  ( 22,  1, 87)


 FLOW MODEL IS TRANSIENT
 FLOW MODEL CONTAINS CONSTANT-HEAD CELLS


 MAXIMUM STEPSIZE DURING WHICH ANY PARTICLE CANNOT MOVE MORE THAN ONE CELL
 =  13.21    (WHEN MIN. R.F.=1)  AT K=  17, I=   1, J=  90

 MAXIMUM STEPSIZE WHICH MEETS STABILITY CRITERION OF THE ADVECTION TERM
 (FOR PURE FINITE-DIFFERENCE OPTION, MIXELM=0) 
 =  7.999    (WHEN MIN. R.F.=1)  AT K=  16, I=   1, J=  90


 TOTAL NUMBER OF POINT SOURCES/SINKS PRESENT IN THE FLOW MODEL =    30

 MAXIMUM STEPSIZE WHICH MEETS STABILITY CRITERION OF THE SINK & SOURCE TERM
 =  12.18    (WHEN MIN. R.F.=1)  AT K=  17, I=   1, J=  91

 MAXIMUM STEPSIZE WHICH MEETS STABILITY CRITERION OF THE DISPERSION TERM
 =  4.364    (WHEN MIN. R.F.=1)  AT K=  17, I=   1, J=  90
     1 CALLS TO GCG PACKAGE FOR TRANSPORT TIME STEP 384 IN FLOW TIME STEP   1 STRESS PERIOD   1
     9 TOTAL ITERATIONS
     1 CALLS TO GCG PACKAGE FOR TRANSPORT TIME STEP 384 IN FLOW TIME STEP   1 STRESS PERIOD   1
     8 TOTAL ITERATIONS
 
 SOLVING FOR HEAD 


     2 CALLS TO PCG ROUTINE FOR TIME STEP   1 IN STRESS PERIOD    1
     9 TOTAL ITERATIONS

 MAXIMUM HEAD CHANGE FOR EACH ITERATION (1 INDICATES THE FIRST INNER ITERATION):

    HEAD CHANGE    HEAD CHANGE    HEAD CHANGE    HEAD CHANGE    HEAD CHANGE 
   LAYER,ROW,COL  LAYER,ROW,COL  LAYER,ROW,COL  LAYER,ROW,COL  LAYER,ROW,COL
 ---------------------------------------------------------------------------
  1  0.1361E-01  0 -0.4109E-02  0 -0.3177E-02  0  0.1284E-01  0 -0.1217E-01
   ( 15,  1, 86)  ( 17,  1, 89)  (  8,  1, 12)  ( 11,  1, 55)  ( 11,  1, 55)
  0  0.1538E-02  0 -0.1096E-02  0 -0.6748E-03  1  0.4810E-03
   (  6,  1, 41)  ( 11,  1, 63)  ( 11,  1, 52)  ( 11,  1, 50)

 MAXIMUM RESIDUAL FOR EACH ITERATION (1 INDICATES THE FIRST INNER ITERATION):

    RESIDUAL       RESIDUAL       RESIDUAL       RESIDUAL       RESIDUAL    
   LAYER,ROW,COL  LAYER,ROW,COL  LAYER,ROW,COL  LAYER,ROW,COL  LAYER,ROW,COL
 ---------------------------------------------------------------------------
  1  0.1362E+06  0 -0.9729E+05  0 -0.9630E+05  0 -0.3045E+05  0   5374.    
   ( 21,  1, 89)  ( 19,  1, 89)  ( 19,  1, 89)  ( 19,  1, 89)  ( 17,  1, 88)
  0   2762.      0   2492.      0   938.7      1   827.5    
   ( 22,  1, 87)  ( 22,  1, 87)  ( 22,  1, 87)  ( 22,  1, 87)


 FLOW MODEL IS TRANSIENT
 FLOW MODEL CONTAINS CONSTANT-HEAD CELLS


 MAXIMUM STEPSIZE DURING WHICH ANY PARTICLE CANNOT MOVE MORE THAN ONE CELL
 =  12.86    (WHEN MIN. R.F.=1)  AT K=  17, I=   1, J=  90

 MAXIMUM STEPSIZE WHICH MEETS STABILITY CRITERION OF THE ADVECTION TERM
 (FOR PURE FINITE-DIFFERENCE OPTION, MIXELM=0) 
 =  8.043    (WHEN MIN. R.F.=1)  AT K=  16, I=   1, J=  90


 TOTAL NUMBER OF POINT SOURCES/SINKS PRESENT IN THE FLOW MODEL =    30

 MAXIMUM STEPSIZE WHICH MEETS STABILITY CRITERION OF THE SINK & SOURCE TERM
 =  12.23    (WHEN MIN. R.F.=1)  AT K=  17, I=   1, J=  91

 MAXIMUM STEPSIZE WHICH MEETS STABILITY CRITERION OF THE DISPERSION TERM
 =  4.027    (WHEN MIN. R.F.=1)  AT K=  17, I=   1, J=  90
     1 CALLS TO GCG PACKAGE FOR TRANSPORT TIME STEP 385 IN FLOW TIME STEP   1 STRESS PERIOD   1
     8 TOTAL ITERATIONS
  MAXIMUM CONCENTRATION CHANGES FOR EACH ITERATION:
  MAX. CHANGE LAYER,ROW,COL MAX. CHANGE LAYER,ROW,COL MAX. CHANGE LAYER,ROW,COL MAX. CHANGE LAYER,ROW,COL MAX. CHANGE LAYER,ROW,COL
 ------------------------------------------------------------------------------------------------------------------------------------
   0.5233E-01 ( 20,  1, 87)  0.4289E-02 ( 19,  1, 89)  0.2076E-02 ( 17,  1, 86)  0.4783E-03 ( 20,  1, 89)  0.9316E-04 ( 16,  1, 89)
   0.2071E-04 ( 20,  1, 89)  0.2131E-04 ( 16,  1, 90)  0.6834E-06 ( 17,  1, 90)
     1 CALLS TO GCG PACKAGE FOR TRANSPORT TIME STEP 385 IN FLOW TIME STEP   1 STRESS PERIOD   1
     8 TOTAL ITERATIONS
  MAXIMUM CONCENTRATION CHANGES FOR EACH ITERATION:
  MAX. CHANGE LAYER,ROW,COL MAX. CHANGE LAYER,ROW,COL MAX. CHANGE LAYER,ROW,COL MAX. CHANGE LAYER,ROW,COL MAX. CHANGE LAYER,ROW,COL
 ------------------------------------------------------------------------------------------------------------------------------------
   0.6102E-01 ( 20,  1, 87)  0.4968E-02 ( 19,  1, 89)  0.2023E-02 ( 19,  1, 89)  0.5395E-03 ( 19,  1, 89)  0.1252E-03 ( 16,  1, 89)
   0.3250E-04 ( 23,  1, 87)  0.1736E-04 ( 17,  1, 90)  0.8879E-06 ( 17,  1, 90)
 
 SOLVING FOR HEAD 


     2 CALLS TO PCG ROUTINE FOR TIME STEP   1 IN STRESS PERIOD    1
     9 TOTAL ITERATIONS

 MAXIMUM HEAD CHANGE FOR EACH ITERATION (1 INDICATES THE FIRST INNER ITERATION):

    HEAD CHANGE    HEAD CHANGE    HEAD CHANGE    HEAD CHANGE    HEAD CHANGE 
   LAYER,ROW,COL  LAYER,ROW,COL  LAYER,ROW,COL  LAYER,ROW,COL  LAYER,ROW,COL
 ---------------------------------------------------------------------------
  1 -0.1350E-01  0  0.3920E-02  0  0.4043E-02  0 -0.1002E-01  0 -0.9466E-02
   ( 15,  1, 86)  ( 17,  1, 89)  (  8,  1, 12)  ( 11,  1, 49)  ( 11,  1, 68)
  0  0.1852E-02  0  0.1031E-02  0  0.7522E-03  1 -0.6748E-03
   ( 11,  1, 63)  ( 11,  1, 70)  ( 11,  1, 57)  ( 11,  1, 70)

 MAXIMUM RESIDUAL FOR EACH ITERATION (1 INDICATES THE FIRST INNER ITERATION):

    RESIDUAL       RESIDUAL       RESIDUAL       RESIDUAL       RESIDUAL    
   LAYER,ROW,COL  LAYER,ROW,COL  LAYER,ROW,COL  LAYER,ROW,COL  LAYER,ROW,COL
 ---------------------------------------------------------------------------
  1 -0.1331E+06  0  0.9370E+05  0  0.9297E+05  0  0.3362E+05  0   5946.    
   ( 21,  1, 89)  ( 19,  1, 89)  ( 19,  1, 89)  ( 19,  1, 89)  ( 17,  1, 87)
  0  -2850.      0  -2576.      0  -915.1      1  -800.7    
   ( 22,  1, 87)  ( 22,  1, 87)  ( 22,  1, 87)  ( 22,  1, 87)


 FLOW MODEL IS TRANSIENT
 FLOW MODEL CONTAINS CONSTANT-HEAD CELLS


 MAXIMUM STEPSIZE DURING WHICH ANY PARTICLE CANNOT MOVE MORE THAN ONE CELL
 =  13.23    (WHEN MIN. R.F.=1)  AT K=  17, I=   1, J=  90

 MAXIMUM STEPSIZE WHICH MEETS STABILITY CRITERION OF THE ADVECTION TERM
 (FOR PURE FINITE-DIFFERENCE OPTION, MIXELM=0) 
 =  8.009    (WHEN MIN. R.F.=1)  AT K=  16, I=   1, J=  90


 TOTAL NUMBER OF POINT SOURCES/SINKS PRESENT IN THE FLOW MODEL =    30

 MAXIMUM STEPSIZE WHICH MEETS STABILITY CRITERION OF THE SINK & SOURCE TERM
 =  12.19    (WHEN MIN. R.F.=1)  AT K=  17, I=   1, J=  91

 MAXIMUM STEPSIZE WHICH MEETS STABILITY CRITERION OF THE DISPERSION TERM
 =  4.377    (WHEN MIN. R.F.=1)  AT K=  17, I=   1, J=  90
     1 CALLS TO GCG PACKAGE FOR TRANSPORT TIME STEP 386 IN FLOW TIME STEP   1 STRESS PERIOD   1
     9 TOTAL ITERATIONS
     1 CALLS TO GCG PACKAGE FOR TRANSPORT TIME STEP 386 IN FLOW TIME STEP   1 STRESS PERIOD   1
     8 TOTAL ITERATIONS
 
 SOLVING FOR HEAD 


     2 CALLS TO PCG ROUTINE FOR TIME STEP   1 IN STRESS PERIOD    1
     9 TOTAL ITERATIONS

 MAXIMUM HEAD CHANGE FOR EACH ITERATION (1 INDICATES THE FIRST INNER ITERATION):

    HEAD CHANGE    HEAD CHANGE    HEAD CHANGE    HEAD CHANGE    HEAD CHANGE 
   LAYER,ROW,COL  LAYER,ROW,COL  LAYER,ROW,COL  LAYER,ROW,COL  LAYER,ROW,COL
 ---------------------------------------------------------------------------
  1  0.1336E-01  0 -0.3783E-02  0 -0.3000E-02  0  0.1019E-01  0 -0.1067E-01
   ( 15,  1, 86)  ( 17,  1, 89)  (  8,  1, 12)  ( 11,  1, 55)  ( 11,  1, 55)
  0  0.1547E-02  0 -0.1234E-02  0 -0.7964E-03  1  0.5457E-03
   (  8,  1, 42)  ( 11,  1, 64)  ( 11,  1, 53)  ( 11,  1, 52)

 MAXIMUM RESIDUAL FOR EACH ITERATION (1 INDICATES THE FIRST INNER ITERATION):

    RESIDUAL       RESIDUAL       RESIDUAL       RESIDUAL       RESIDUAL    
   LAYER,ROW,COL  LAYER,ROW,COL  LAYER,ROW,COL  LAYER,ROW,COL  LAYER,ROW,COL
 ---------------------------------------------------------------------------
  1  0.1339E+06  0 -0.9423E+05  0 -0.8949E+05  0 -0.2741E+05  0  -5428.    
   ( 21,  1, 89)  ( 19,  1, 89)  ( 19,  1, 89)  ( 19,  1, 89)  ( 17,  1, 87)
  0   2849.      0   2536.      0   1017.      1   888.1    
   ( 22,  1, 87)  ( 22,  1, 87)  ( 22,  1, 87)  ( 22,  1, 87)


 FLOW MODEL IS TRANSIENT
 FLOW MODEL CONTAINS CONSTANT-HEAD CELLS


 MAXIMUM STEPSIZE DURING WHICH ANY PARTICLE CANNOT MOVE MORE THAN ONE CELL
 =  12.86    (WHEN MIN. R.F.=1)  AT K=  17, I=   1, J=  90

 MAXIMUM STEPSIZE WHICH MEETS STABILITY CRITERION OF THE ADVECTION TERM
 (FOR PURE FINITE-DIFFERENCE OPTION, MIXELM=0) 
 =  8.040    (WHEN MIN. R.F.=1)  AT K=  16, I=   1, J=  90


 TOTAL NUMBER OF POINT SOURCES/SINKS PRESENT IN THE FLOW MODEL =    30

 MAXIMUM STEPSIZE WHICH MEETS STABILITY CRITERION OF THE SINK & SOURCE TERM
 =  12.21    (WHEN MIN. R.F.=1)  AT K=  17, I=   1, J=  91

 MAXIMUM STEPSIZE WHICH MEETS STABILITY CRITERION OF THE DISPERSION TERM
 =  4.033    (WHEN MIN. R.F.=1)  AT K=  17, I=   1, J=  90
     1 CALLS TO GCG PACKAGE FOR TRANSPORT TIME STEP 387 IN FLOW TIME STEP   1 STRESS PERIOD   1
     8 TOTAL ITERATIONS
     1 CALLS TO GCG PACKAGE FOR TRANSPORT TIME STEP 387 IN FLOW TIME STEP   1 STRESS PERIOD   1
     8 TOTAL ITERATIONS
 
 SOLVING FOR HEAD 


     2 CALLS TO PCG ROUTINE FOR TIME STEP   1 IN STRESS PERIOD    1
     9 TOTAL ITERATIONS

 MAXIMUM HEAD CHANGE FOR EACH ITERATION (1 INDICATES THE FIRST INNER ITERATION):

    HEAD CHANGE    HEAD CHANGE    HEAD CHANGE    HEAD CHANGE    HEAD CHANGE 
   LAYER,ROW,COL  LAYER,ROW,COL  LAYER,ROW,COL  LAYER,ROW,COL  LAYER,ROW,COL
 ---------------------------------------------------------------------------
  1 -0.1352E-01  0  0.3784E-02  0  0.3465E-02  0  0.1020E-01  0 -0.9448E-02
   ( 15,  1, 86)  ( 17,  1, 89)  (  8,  1, 12)  ( 11,  1, 69)  ( 11,  1, 68)
  0 -0.1725E-02  0  0.1076E-02  0  0.7770E-03  1 -0.7883E-03
   ( 11,  1, 36)  ( 11,  1, 70)  ( 11,  1, 70)  ( 11,  1, 70)

 MAXIMUM RESIDUAL FOR EACH ITERATION (1 INDICATES THE FIRST INNER ITERATION):

    RESIDUAL       RESIDUAL       RESIDUAL       RESIDUAL       RESIDUAL    
   LAYER,ROW,COL  LAYER,ROW,COL  LAYER,ROW,COL  LAYER,ROW,COL  LAYER,ROW,COL
 ---------------------------------------------------------------------------
  1 -0.1342E+06  0  0.9451E+05  0  0.9363E+05  0  0.3678E+05  0   6006.    
   ( 21,  1, 89)  ( 19,  1, 89)  ( 19,  1, 89)  ( 19,  1, 89)  ( 17,  1, 87)
  0  -2824.      0  -2552.      0  -972.4      1  -842.7    
   ( 22,  1, 87)  ( 22,  1, 87)  ( 22,  1, 87)  ( 22,  1, 87)


 FLOW MODEL IS TRANSIENT
 FLOW MODEL CONTAINS CONSTANT-HEAD CELLS


 MAXIMUM STEPSIZE DURING WHICH ANY PARTICLE CANNOT MOVE MORE THAN ONE CELL
 =  13.21    (WHEN MIN. R.F.=1)  AT K=  17, I=   1, J=  90

 MAXIMUM STEPSIZE WHICH MEETS STABILITY CRITERION OF THE ADVECTION TERM
 (FOR PURE FINITE-DIFFERENCE OPTION, MIXELM=0) 
 =  8.002    (WHEN MIN. R.F.=1)  AT K=  16, I=   1, J=  90


 TOTAL NUMBER OF POINT SOURCES/SINKS PRESENT IN THE FLOW MODEL =    30

 MAXIMUM STEPSIZE WHICH MEETS STABILITY CRITERION OF THE SINK & SOURCE TERM
 =  12.16    (WHEN MIN. R.F.=1)  AT K=  17, I=   1, J=  91

 MAXIMUM STEPSIZE WHICH MEETS STABILITY CRITERION OF THE DISPERSION TERM
 =  4.362    (WHEN MIN. R.F.=1)  AT K=  17, I=   1, J=  90
     1 CALLS TO GCG PACKAGE FOR TRANSPORT TIME STEP 388 IN FLOW TIME STEP   1 STRESS PERIOD   1
     7 TOTAL ITERATIONS
     1 CALLS TO GCG PACKAGE FOR TRANSPORT TIME STEP 388 IN FLOW TIME STEP   1 STRESS PERIOD   1
     8 TOTAL ITERATIONS
 
 SOLVING FOR HEAD 


     2 CALLS TO PCG ROUTINE FOR TIME STEP   1 IN STRESS PERIOD    1
     9 TOTAL ITERATIONS

 MAXIMUM HEAD CHANGE FOR EACH ITERATION (1 INDICATES THE FIRST INNER ITERATION):

    HEAD CHANGE    HEAD CHANGE    HEAD CHANGE    HEAD CHANGE    HEAD CHANGE 
   LAYER,ROW,COL  LAYER,ROW,COL  LAYER,ROW,COL  LAYER,ROW,COL  LAYER,ROW,COL
 ---------------------------------------------------------------------------
  1  0.1353E-01  0 -0.3757E-02  0 -0.2403E-02  0  0.9921E-02  0 -0.1017E-01
   ( 15,  1, 86)  ( 17,  1, 89)  (  8,  1, 12)  ( 11,  1, 55)  ( 11,  1, 55)
  0  0.1480E-02  0 -0.1313E-02  0 -0.7872E-03  1  0.5767E-03
   (  8,  1, 42)  ( 11,  1, 64)  ( 11,  1, 53)  ( 11,  1, 53)

 MAXIMUM RESIDUAL FOR EACH ITERATION (1 INDICATES THE FIRST INNER ITERATION):

    RESIDUAL       RESIDUAL       RESIDUAL       RESIDUAL       RESIDUAL    
   LAYER,ROW,COL  LAYER,ROW,COL  LAYER,ROW,COL  LAYER,ROW,COL  LAYER,ROW,COL
 ---------------------------------------------------------------------------
  1  0.1324E+06  0 -0.9291E+05  0 -0.9075E+05  0 -0.2718E+05  0  -5366.    
   ( 21,  1, 89)  ( 19,  1, 89)  ( 19,  1, 89)  ( 19,  1, 89)  ( 17,  1, 87)
  0   2868.      0   2550.      0   1050.      1   924.7    
   ( 22,  1, 87)  ( 22,  1, 87)  ( 22,  1, 87)  ( 22,  1, 87)


 FLOW MODEL IS TRANSIENT
 FLOW MODEL CONTAINS CONSTANT-HEAD CELLS


 MAXIMUM STEPSIZE DURING WHICH ANY PARTICLE CANNOT MOVE MORE THAN ONE CELL
 =  12.87    (WHEN MIN. R.F.=1)  AT K=  17, I=   1, J=  90

 MAXIMUM STEPSIZE WHICH MEETS STABILITY CRITERION OF THE ADVECTION TERM
 (FOR PURE FINITE-DIFFERENCE OPTION, MIXELM=0) 
 =  8.038    (WHEN MIN. R.F.=1)  AT K=  16, I=   1, J=  90


 TOTAL NUMBER OF POINT SOURCES/SINKS PRESENT IN THE FLOW MODEL =    30

 MAXIMUM STEPSIZE WHICH MEETS STABILITY CRITERION OF THE SINK & SOURCE TERM
 =  12.21    (WHEN MIN. R.F.=1)  AT K=  17, I=   1, J=  91

 MAXIMUM STEPSIZE WHICH MEETS STABILITY CRITERION OF THE DISPERSION TERM
 =  4.034    (WHEN MIN. R.F.=1)  AT K=  17, I=   1, J=  90
     1 CALLS TO GCG PACKAGE FOR TRANSPORT TIME STEP 389 IN FLOW TIME STEP   1 STRESS PERIOD   1
     8 TOTAL ITERATIONS
     1 CALLS TO GCG PACKAGE FOR TRANSPORT TIME STEP 389 IN FLOW TIME STEP   1 STRESS PERIOD   1
     8 TOTAL ITERATIONS
 
 SOLVING FOR HEAD 


     2 CALLS TO PCG ROUTINE FOR TIME STEP   1 IN STRESS PERIOD    1
     9 TOTAL ITERATIONS

 MAXIMUM HEAD CHANGE FOR EACH ITERATION (1 INDICATES THE FIRST INNER ITERATION):

    HEAD CHANGE    HEAD CHANGE    HEAD CHANGE    HEAD CHANGE    HEAD CHANGE 
   LAYER,ROW,COL  LAYER,ROW,COL  LAYER,ROW,COL  LAYER,ROW,COL  LAYER,ROW,COL
 ---------------------------------------------------------------------------
  1 -0.1351E-01  0  0.3751E-02  0  0.2720E-02  0  0.9532E-02  0 -0.8845E-02
   ( 15,  1, 86)  ( 17,  1, 89)  (  8,  1, 12)  ( 11,  1, 69)  ( 11,  1, 68)
  0 -0.1556E-02  0  0.1070E-02  0  0.7585E-03  1 -0.8570E-03
   ( 11,  1, 35)  ( 11,  1, 69)  ( 11,  1, 58)  ( 11,  1, 70)

 MAXIMUM RESIDUAL FOR EACH ITERATION (1 INDICATES THE FIRST INNER ITERATION):

    RESIDUAL       RESIDUAL       RESIDUAL       RESIDUAL       RESIDUAL    
   LAYER,ROW,COL  LAYER,ROW,COL  LAYER,ROW,COL  LAYER,ROW,COL  LAYER,ROW,COL
 ---------------------------------------------------------------------------
  1 -0.1334E+06  0  0.9413E+05  0  0.9302E+05  0  0.3543E+05  0   5942.    
   ( 21,  1, 89)  ( 19,  1, 89)  ( 19,  1, 89)  ( 19,  1, 89)  ( 17,  1, 87)
  0  -2840.      0  -2526.      0  -949.9      1  -811.5    
   ( 22,  1, 87)  ( 22,  1, 87)  ( 22,  1, 87)  ( 22,  1, 87)


 FLOW MODEL IS TRANSIENT
 FLOW MODEL CONTAINS CONSTANT-HEAD CELLS


 MAXIMUM STEPSIZE DURING WHICH ANY PARTICLE CANNOT MOVE MORE THAN ONE CELL
 =  13.20    (WHEN MIN. R.F.=1)  AT K=  17, I=   1, J=  90

 MAXIMUM STEPSIZE WHICH MEETS STABILITY CRITERION OF THE ADVECTION TERM
 (FOR PURE FINITE-DIFFERENCE OPTION, MIXELM=0) 
 =  8.000    (WHEN MIN. R.F.=1)  AT K=  16, I=   1, J=  90


 TOTAL NUMBER OF POINT SOURCES/SINKS PRESENT IN THE FLOW MODEL =    30

 MAXIMUM STEPSIZE WHICH MEETS STABILITY CRITERION OF THE SINK & SOURCE TERM
 =  12.16    (WHEN MIN. R.F.=1)  AT K=  17, I=   1, J=  91

 MAXIMUM STEPSIZE WHICH MEETS STABILITY CRITERION OF THE DISPERSION TERM
 =  4.357    (WHEN MIN. R.F.=1)  AT K=  17, I=   1, J=  90
     1 CALLS TO GCG PACKAGE FOR TRANSPORT TIME STEP 390 IN FLOW TIME STEP   1 STRESS PERIOD   1
     9 TOTAL ITERATIONS
  MAXIMUM CONCENTRATION CHANGES FOR EACH ITERATION:
  MAX. CHANGE LAYER,ROW,COL MAX. CHANGE LAYER,ROW,COL MAX. CHANGE LAYER,ROW,COL MAX. CHANGE LAYER,ROW,COL MAX. CHANGE LAYER,ROW,COL
 ------------------------------------------------------------------------------------------------------------------------------------
   0.4924E-01 ( 20,  1, 87)  0.3339E-02 ( 19,  1, 87)  0.2215E-02 ( 18,  1, 87)  0.2166E-03 ( 16,  1, 88)  0.1410E-03 ( 16,  1, 89)
   0.2981E-04 ( 16,  1, 90)  0.1108E-05 ( 21,  1, 78)  0.3408E-05 ( 21,  1, 78)  0.8372E-06 ( 16,  1, 89)
     1 CALLS TO GCG PACKAGE FOR TRANSPORT TIME STEP 390 IN FLOW TIME STEP   1 STRESS PERIOD   1
     8 TOTAL ITERATIONS
  MAXIMUM CONCENTRATION CHANGES FOR EACH ITERATION:
  MAX. CHANGE LAYER,ROW,COL MAX. CHANGE LAYER,ROW,COL MAX. CHANGE LAYER,ROW,COL MAX. CHANGE LAYER,ROW,COL MAX. CHANGE LAYER,ROW,COL
 ------------------------------------------------------------------------------------------------------------------------------------
   0.5632E-01 ( 20,  1, 87)  0.4484E-02 ( 19,  1, 87)  0.2333E-02 ( 18,  1, 87)  0.3581E-03 ( 18,  1, 87)  0.1374E-03 ( 16,  1, 89)
   0.3821E-04 ( 17,  1, 90)  0.5991E-05 ( 17,  1, 90)  0.6125E-06 ( 16,  1, 89)



 >>>>>>>>>>>>>>>>>>>>>>>>>>>>>>>>>>>>>>>>>>>>>>>>>>>>>>>FOR COMPONENT NO. 01<<<<<<<<<<<<<<<<<<<<<<<<<<<<<<<<<<<<<<<<<<<<<<<<<<<<<<<


                                            -------------------------------------------
                                                      TRANSPORT STEP NO.  390
                                            -------------------------------------------

 TOTAL ELAPSED TIME SINCE BEGINNING OF SIMULATION =   19500.00    D   
 .....................................................................

                     CUMMULATIVE MASS BUDGETS AT END OF TRANSPORT STEP  390, TIME STEP    1, STRESS PERIOD    1
                     ------------------------------------------------------------------------------------------

                                                             IN                           OUT
                                                      ----------------             ----------------
                               CONSTANT CONCENTRATION:    0.000000                    0.000000    
                                        CONSTANT HEAD:   0.7717987E+09              -0.7715999E+09
                                                WELLS:    0.000000                    0.000000    
                                             RECHARGE:    0.000000                    0.000000    
                               1ST/0TH ORDER REACTION:    0.000000                    0.000000    
                                MASS STORAGE (SOLUTE):   0.1079265E+09              -0.1081255E+09
                            ---------------------------------------------------------------------------
                                              [TOTAL]:   0.8797260E+09 KG           -0.8797261E+09 KG  

                                                          NET (IN - OUT):   -140.3473    
                                                   DISCREPANCY (PERCENT):  -0.1595353E-04



 >>>>>>>>>>>>>>>>>>>>>>>>>>>>>>>>>>>>>>>>>>>>>>>>>>>>>>>FOR COMPONENT NO. 02<<<<<<<<<<<<<<<<<<<<<<<<<<<<<<<<<<<<<<<<<<<<<<<<<<<<<<<


                                            -------------------------------------------
                                                      TRANSPORT STEP NO.  390
                                            -------------------------------------------

 TOTAL ELAPSED TIME SINCE BEGINNING OF SIMULATION =   19500.00    D   
 .....................................................................

                     CUMMULATIVE MASS BUDGETS AT END OF TRANSPORT STEP  390, TIME STEP    1, STRESS PERIOD    1
                     ------------------------------------------------------------------------------------------

                                                             IN                           OUT
                                                      ----------------             ----------------
                               CONSTANT CONCENTRATION:    0.000000                    0.000000    
                                        CONSTANT HEAD:    0.000000                  -0.9826206E+11
                                                WELLS:    0.000000                    0.000000    
                                             RECHARGE:    0.000000                    0.000000    
                               1ST/0TH ORDER REACTION:   0.3227250E+12                0.000000    
                                MASS STORAGE (SOLUTE):   0.2808192E+11              -0.2525449E+12
                            ---------------------------------------------------------------------------
                                              [TOTAL]:   0.3508074E+12 KG           -0.3508074E+12 KG  

                                                          NET (IN - OUT):   -29526.99    
                                                   DISCREPANCY (PERCENT):  -0.8416868E-05
 
 SOLVING FOR HEAD 


     2 CALLS TO PCG ROUTINE FOR TIME STEP   1 IN STRESS PERIOD    1
     9 TOTAL ITERATIONS

 MAXIMUM HEAD CHANGE FOR EACH ITERATION (1 INDICATES THE FIRST INNER ITERATION):

    HEAD CHANGE    HEAD CHANGE    HEAD CHANGE    HEAD CHANGE    HEAD CHANGE 
   LAYER,ROW,COL  LAYER,ROW,COL  LAYER,ROW,COL  LAYER,ROW,COL  LAYER,ROW,COL
 ---------------------------------------------------------------------------
  1  0.1353E-01  0 -0.3721E-02  0 -0.2355E-02  0  0.9905E-02  0 -0.9978E-02
   ( 15,  1, 86)  ( 17,  1, 89)  (  8,  1, 12)  ( 11,  1, 56)  ( 11,  1, 56)
  0  0.1715E-02  0 -0.1368E-02  0 -0.7394E-03  1  0.6077E-03
   ( 11,  1, 53)  ( 11,  1, 64)  ( 11,  1, 53)  ( 11,  1, 53)

 MAXIMUM RESIDUAL FOR EACH ITERATION (1 INDICATES THE FIRST INNER ITERATION):

    RESIDUAL       RESIDUAL       RESIDUAL       RESIDUAL       RESIDUAL    
   LAYER,ROW,COL  LAYER,ROW,COL  LAYER,ROW,COL  LAYER,ROW,COL  LAYER,ROW,COL
 ---------------------------------------------------------------------------
  1  0.1322E+06  0 -0.9269E+05  0 -0.9098E+05  0 -0.2732E+05  0  -5336.    
   ( 21,  1, 89)  ( 19,  1, 89)  ( 19,  1, 89)  ( 19,  1, 89)  ( 17,  1, 87)
  0   2859.      0   2535.      0   1044.      1   926.3    
   ( 22,  1, 87)  ( 22,  1, 87)  ( 22,  1, 87)  ( 22,  1, 87)


 FLOW MODEL IS TRANSIENT
 FLOW MODEL CONTAINS CONSTANT-HEAD CELLS


 MAXIMUM STEPSIZE DURING WHICH ANY PARTICLE CANNOT MOVE MORE THAN ONE CELL
 =  12.86    (WHEN MIN. R.F.=1)  AT K=  17, I=   1, J=  90

 MAXIMUM STEPSIZE WHICH MEETS STABILITY CRITERION OF THE ADVECTION TERM
 (FOR PURE FINITE-DIFFERENCE OPTION, MIXELM=0) 
 =  8.036    (WHEN MIN. R.F.=1)  AT K=  16, I=   1, J=  90


 TOTAL NUMBER OF POINT SOURCES/SINKS PRESENT IN THE FLOW MODEL =    30

 MAXIMUM STEPSIZE WHICH MEETS STABILITY CRITERION OF THE SINK & SOURCE TERM
 =  12.21    (WHEN MIN. R.F.=1)  AT K=  17, I=   1, J=  91

 MAXIMUM STEPSIZE WHICH MEETS STABILITY CRITERION OF THE DISPERSION TERM
 =  4.033    (WHEN MIN. R.F.=1)  AT K=  17, I=   1, J=  90
     1 CALLS TO GCG PACKAGE FOR TRANSPORT TIME STEP 391 IN FLOW TIME STEP   1 STRESS PERIOD   1
     8 TOTAL ITERATIONS
     1 CALLS TO GCG PACKAGE FOR TRANSPORT TIME STEP 391 IN FLOW TIME STEP   1 STRESS PERIOD   1
     8 TOTAL ITERATIONS
 
 SOLVING FOR HEAD 


     2 CALLS TO PCG ROUTINE FOR TIME STEP   1 IN STRESS PERIOD    1
     9 TOTAL ITERATIONS

 MAXIMUM HEAD CHANGE FOR EACH ITERATION (1 INDICATES THE FIRST INNER ITERATION):

    HEAD CHANGE    HEAD CHANGE    HEAD CHANGE    HEAD CHANGE    HEAD CHANGE 
   LAYER,ROW,COL  LAYER,ROW,COL  LAYER,ROW,COL  LAYER,ROW,COL  LAYER,ROW,COL
 ---------------------------------------------------------------------------
  1 -0.1348E-01  0  0.3719E-02  0  0.2507E-02  0  0.8389E-02  0 -0.8352E-02
   ( 15,  1, 86)  ( 17,  1, 89)  (  8,  1, 12)  ( 11,  1, 69)  (  7,  1, 54)
  0 -0.1322E-02  0  0.1068E-02  0  0.7610E-03  1 -0.9344E-03
   ( 11,  1, 35)  ( 11,  1, 69)  ( 11,  1, 54)  ( 11,  1, 70)

 MAXIMUM RESIDUAL FOR EACH ITERATION (1 INDICATES THE FIRST INNER ITERATION):

    RESIDUAL       RESIDUAL       RESIDUAL       RESIDUAL       RESIDUAL    
   LAYER,ROW,COL  LAYER,ROW,COL  LAYER,ROW,COL  LAYER,ROW,COL  LAYER,ROW,COL
 ---------------------------------------------------------------------------
  1 -0.1324E+06  0  0.9331E+05  0  0.9207E+05  0  0.3384E+05  0   5915.    
   ( 21,  1, 89)  ( 19,  1, 89)  ( 19,  1, 89)  ( 19,  1, 89)  ( 17,  1, 87)
  0  -2857.      0  -2449.      0  -906.6      1  -755.5    
   ( 22,  1, 87)  ( 22,  1, 87)  ( 22,  1, 87)  ( 22,  1, 87)


 FLOW MODEL IS TRANSIENT
 FLOW MODEL CONTAINS CONSTANT-HEAD CELLS


 MAXIMUM STEPSIZE DURING WHICH ANY PARTICLE CANNOT MOVE MORE THAN ONE CELL
 =  13.20    (WHEN MIN. R.F.=1)  AT K=  17, I=   1, J=  90

 MAXIMUM STEPSIZE WHICH MEETS STABILITY CRITERION OF THE ADVECTION TERM
 (FOR PURE FINITE-DIFFERENCE OPTION, MIXELM=0) 
 =  7.998    (WHEN MIN. R.F.=1)  AT K=  16, I=   1, J=  90


 TOTAL NUMBER OF POINT SOURCES/SINKS PRESENT IN THE FLOW MODEL =    30

 MAXIMUM STEPSIZE WHICH MEETS STABILITY CRITERION OF THE SINK & SOURCE TERM
 =  12.16    (WHEN MIN. R.F.=1)  AT K=  17, I=   1, J=  91

 MAXIMUM STEPSIZE WHICH MEETS STABILITY CRITERION OF THE DISPERSION TERM
 =  4.352    (WHEN MIN. R.F.=1)  AT K=  17, I=   1, J=  90
     1 CALLS TO GCG PACKAGE FOR TRANSPORT TIME STEP 392 IN FLOW TIME STEP   1 STRESS PERIOD   1
     9 TOTAL ITERATIONS
     1 CALLS TO GCG PACKAGE FOR TRANSPORT TIME STEP 392 IN FLOW TIME STEP   1 STRESS PERIOD   1
     8 TOTAL ITERATIONS
 
 SOLVING FOR HEAD 


     2 CALLS TO PCG ROUTINE FOR TIME STEP   1 IN STRESS PERIOD    1
     9 TOTAL ITERATIONS

 MAXIMUM HEAD CHANGE FOR EACH ITERATION (1 INDICATES THE FIRST INNER ITERATION):

    HEAD CHANGE    HEAD CHANGE    HEAD CHANGE    HEAD CHANGE    HEAD CHANGE 
   LAYER,ROW,COL  LAYER,ROW,COL  LAYER,ROW,COL  LAYER,ROW,COL  LAYER,ROW,COL
 ---------------------------------------------------------------------------
  1  0.1352E-01  0 -0.3699E-02  0 -0.2355E-02  0  0.9736E-02  0 -0.9757E-02
   ( 15,  1, 86)  ( 17,  1, 89)  (  8,  1, 12)  ( 11,  1, 56)  ( 11,  1, 56)
  0  0.1799E-02  0 -0.1290E-02  0 -0.5867E-03  1  0.5542E-03
   ( 11,  1, 53)  ( 11,  1, 64)  ( 11,  1, 53)  ( 11,  1, 53)

 MAXIMUM RESIDUAL FOR EACH ITERATION (1 INDICATES THE FIRST INNER ITERATION):

    RESIDUAL       RESIDUAL       RESIDUAL       RESIDUAL       RESIDUAL    
   LAYER,ROW,COL  LAYER,ROW,COL  LAYER,ROW,COL  LAYER,ROW,COL  LAYER,ROW,COL
 ---------------------------------------------------------------------------
  1  0.1317E+06  0 -0.9235E+05  0 -0.9080E+05  0 -0.2602E+05  0  -5278.    
   ( 21,  1, 89)  ( 19,  1, 89)  ( 19,  1, 89)  ( 19,  1, 89)  ( 17,  1, 87)
  0   2861.      0   2490.      0   960.6      1   855.0    
   ( 22,  1, 87)  ( 22,  1, 87)  ( 22,  1, 87)  ( 22,  1, 87)


 FLOW MODEL IS TRANSIENT
 FLOW MODEL CONTAINS CONSTANT-HEAD CELLS


 MAXIMUM STEPSIZE DURING WHICH ANY PARTICLE CANNOT MOVE MORE THAN ONE CELL
 =  12.86    (WHEN MIN. R.F.=1)  AT K=  17, I=   1, J=  90

 MAXIMUM STEPSIZE WHICH MEETS STABILITY CRITERION OF THE ADVECTION TERM
 (FOR PURE FINITE-DIFFERENCE OPTION, MIXELM=0) 
 =  8.034    (WHEN MIN. R.F.=1)  AT K=  16, I=   1, J=  90


 TOTAL NUMBER OF POINT SOURCES/SINKS PRESENT IN THE FLOW MODEL =    30

 MAXIMUM STEPSIZE WHICH MEETS STABILITY CRITERION OF THE SINK & SOURCE TERM
 =  12.20    (WHEN MIN. R.F.=1)  AT K=  17, I=   1, J=  91

 MAXIMUM STEPSIZE WHICH MEETS STABILITY CRITERION OF THE DISPERSION TERM
 =  4.031    (WHEN MIN. R.F.=1)  AT K=  17, I=   1, J=  90
     1 CALLS TO GCG PACKAGE FOR TRANSPORT TIME STEP 393 IN FLOW TIME STEP   1 STRESS PERIOD   1
     8 TOTAL ITERATIONS
     1 CALLS TO GCG PACKAGE FOR TRANSPORT TIME STEP 393 IN FLOW TIME STEP   1 STRESS PERIOD   1
     8 TOTAL ITERATIONS
 
 SOLVING FOR HEAD 


     2 CALLS TO PCG ROUTINE FOR TIME STEP   1 IN STRESS PERIOD    1
     9 TOTAL ITERATIONS

 MAXIMUM HEAD CHANGE FOR EACH ITERATION (1 INDICATES THE FIRST INNER ITERATION):

    HEAD CHANGE    HEAD CHANGE    HEAD CHANGE    HEAD CHANGE    HEAD CHANGE 
   LAYER,ROW,COL  LAYER,ROW,COL  LAYER,ROW,COL  LAYER,ROW,COL  LAYER,ROW,COL
 ---------------------------------------------------------------------------
  1 -0.1346E-01  0  0.3670E-02  0  0.2364E-02  0  0.8114E-02  0 -0.8258E-02
   ( 15,  1, 86)  ( 17,  1, 89)  (  7,  1, 12)  (  7,  1, 54)  (  8,  1, 54)
  0 -0.1204E-02  0  0.1202E-02  0  0.8427E-03  1 -0.9209E-03
   ( 11,  1, 35)  ( 11,  1, 70)  ( 11,  1, 53)  ( 11,  1, 70)

 MAXIMUM RESIDUAL FOR EACH ITERATION (1 INDICATES THE FIRST INNER ITERATION):

    RESIDUAL       RESIDUAL       RESIDUAL       RESIDUAL       RESIDUAL    
   LAYER,ROW,COL  LAYER,ROW,COL  LAYER,ROW,COL  LAYER,ROW,COL  LAYER,ROW,COL
 ---------------------------------------------------------------------------
  1 -0.1316E+06  0  0.9247E+05  0  0.9105E+05  0  0.3287E+05  0   5934.    
   ( 21,  1, 89)  ( 19,  1, 89)  ( 19,  1, 89)  ( 19,  1, 89)  ( 17,  1, 87)
  0  -2869.      0  -2348.      0  -882.0      1  -731.8    
   ( 22,  1, 87)  ( 22,  1, 87)  ( 22,  1, 87)  ( 22,  1, 87)


 FLOW MODEL IS TRANSIENT
 FLOW MODEL CONTAINS CONSTANT-HEAD CELLS


 MAXIMUM STEPSIZE DURING WHICH ANY PARTICLE CANNOT MOVE MORE THAN ONE CELL
 =  13.20    (WHEN MIN. R.F.=1)  AT K=  17, I=   1, J=  90

 MAXIMUM STEPSIZE WHICH MEETS STABILITY CRITERION OF THE ADVECTION TERM
 (FOR PURE FINITE-DIFFERENCE OPTION, MIXELM=0) 
 =  7.998    (WHEN MIN. R.F.=1)  AT K=  16, I=   1, J=  90


 TOTAL NUMBER OF POINT SOURCES/SINKS PRESENT IN THE FLOW MODEL =    30

 MAXIMUM STEPSIZE WHICH MEETS STABILITY CRITERION OF THE SINK & SOURCE TERM
 =  12.16    (WHEN MIN. R.F.=1)  AT K=  17, I=   1, J=  91

 MAXIMUM STEPSIZE WHICH MEETS STABILITY CRITERION OF THE DISPERSION TERM
 =  4.350    (WHEN MIN. R.F.=1)  AT K=  17, I=   1, J=  90
     1 CALLS TO GCG PACKAGE FOR TRANSPORT TIME STEP 394 IN FLOW TIME STEP   1 STRESS PERIOD   1
     9 TOTAL ITERATIONS
     1 CALLS TO GCG PACKAGE FOR TRANSPORT TIME STEP 394 IN FLOW TIME STEP   1 STRESS PERIOD   1
     8 TOTAL ITERATIONS
 
 SOLVING FOR HEAD 


     2 CALLS TO PCG ROUTINE FOR TIME STEP   1 IN STRESS PERIOD    1
     9 TOTAL ITERATIONS

 MAXIMUM HEAD CHANGE FOR EACH ITERATION (1 INDICATES THE FIRST INNER ITERATION):

    HEAD CHANGE    HEAD CHANGE    HEAD CHANGE    HEAD CHANGE    HEAD CHANGE 
   LAYER,ROW,COL  LAYER,ROW,COL  LAYER,ROW,COL  LAYER,ROW,COL  LAYER,ROW,COL
 ---------------------------------------------------------------------------
  1  0.1352E-01  0 -0.3670E-02  0 -0.2343E-02  0  0.9539E-02  0 -0.9489E-02
   ( 15,  1, 86)  ( 17,  1, 89)  (  8,  1, 12)  ( 11,  1, 56)  ( 11,  1, 56)
  0  0.1689E-02  0 -0.1124E-02  0 -0.5041E-03  1  0.5089E-03
   ( 11,  1, 53)  ( 11,  1, 64)  ( 11,  1, 49)  ( 11,  1, 53)

 MAXIMUM RESIDUAL FOR EACH ITERATION (1 INDICATES THE FIRST INNER ITERATION):

    RESIDUAL       RESIDUAL       RESIDUAL       RESIDUAL       RESIDUAL    
   LAYER,ROW,COL  LAYER,ROW,COL  LAYER,ROW,COL  LAYER,ROW,COL  LAYER,ROW,COL
 ---------------------------------------------------------------------------
  1  0.1312E+06  0 -0.9194E+05  0 -0.9034E+05  0 -0.2672E+05  0  -5307.    
   ( 21,  1, 89)  ( 19,  1, 89)  ( 19,  1, 89)  ( 19,  1, 89)  ( 17,  1, 87)
  0   2873.      0   2405.      0   892.4      1   788.9    
   ( 22,  1, 87)  ( 22,  1, 87)  ( 22,  1, 87)  ( 22,  1, 87)


 FLOW MODEL IS TRANSIENT
 FLOW MODEL CONTAINS CONSTANT-HEAD CELLS


 MAXIMUM STEPSIZE DURING WHICH ANY PARTICLE CANNOT MOVE MORE THAN ONE CELL
 =  12.86    (WHEN MIN. R.F.=1)  AT K=  17, I=   1, J=  90

 MAXIMUM STEPSIZE WHICH MEETS STABILITY CRITERION OF THE ADVECTION TERM
 (FOR PURE FINITE-DIFFERENCE OPTION, MIXELM=0) 
 =  8.033    (WHEN MIN. R.F.=1)  AT K=  16, I=   1, J=  90


 TOTAL NUMBER OF POINT SOURCES/SINKS PRESENT IN THE FLOW MODEL =    30

 MAXIMUM STEPSIZE WHICH MEETS STABILITY CRITERION OF THE SINK & SOURCE TERM
 =  12.20    (WHEN MIN. R.F.=1)  AT K=  17, I=   1, J=  91

 MAXIMUM STEPSIZE WHICH MEETS STABILITY CRITERION OF THE DISPERSION TERM
 =  4.032    (WHEN MIN. R.F.=1)  AT K=  17, I=   1, J=  90
     1 CALLS TO GCG PACKAGE FOR TRANSPORT TIME STEP 395 IN FLOW TIME STEP   1 STRESS PERIOD   1
     8 TOTAL ITERATIONS
  MAXIMUM CONCENTRATION CHANGES FOR EACH ITERATION:
  MAX. CHANGE LAYER,ROW,COL MAX. CHANGE LAYER,ROW,COL MAX. CHANGE LAYER,ROW,COL MAX. CHANGE LAYER,ROW,COL MAX. CHANGE LAYER,ROW,COL
 ------------------------------------------------------------------------------------------------------------------------------------
   0.5260E-01 ( 20,  1, 87)  0.4158E-02 ( 19,  1, 89)  0.2152E-02 ( 18,  1, 86)  0.4625E-03 ( 20,  1, 89)  0.9521E-04 ( 16,  1, 89)
   0.1997E-04 ( 20,  1, 89)  0.1711E-04 ( 16,  1, 90)  0.7490E-06 ( 17,  1, 90)
     1 CALLS TO GCG PACKAGE FOR TRANSPORT TIME STEP 395 IN FLOW TIME STEP   1 STRESS PERIOD   1
     8 TOTAL ITERATIONS
  MAXIMUM CONCENTRATION CHANGES FOR EACH ITERATION:
  MAX. CHANGE LAYER,ROW,COL MAX. CHANGE LAYER,ROW,COL MAX. CHANGE LAYER,ROW,COL MAX. CHANGE LAYER,ROW,COL MAX. CHANGE LAYER,ROW,COL
 ------------------------------------------------------------------------------------------------------------------------------------
   0.6104E-01 ( 20,  1, 87)  0.4817E-02 ( 19,  1, 89)  0.2066E-02 ( 18,  1, 86)  0.4878E-03 ( 23,  1, 87)  0.1152E-03 ( 16,  1, 89)
   0.2558E-04 ( 23,  1, 87)  0.1424E-04 ( 17,  1, 90)  0.9103E-06 ( 17,  1, 90)
 
 SOLVING FOR HEAD 


     2 CALLS TO PCG ROUTINE FOR TIME STEP   1 IN STRESS PERIOD    1
     9 TOTAL ITERATIONS

 MAXIMUM HEAD CHANGE FOR EACH ITERATION (1 INDICATES THE FIRST INNER ITERATION):

    HEAD CHANGE    HEAD CHANGE    HEAD CHANGE    HEAD CHANGE    HEAD CHANGE 
   LAYER,ROW,COL  LAYER,ROW,COL  LAYER,ROW,COL  LAYER,ROW,COL  LAYER,ROW,COL
 ---------------------------------------------------------------------------
  1 -0.1345E-01  0  0.3633E-02  0  0.2319E-02  0  0.8246E-02  0 -0.8355E-02
   ( 15,  1, 86)  ( 17,  1, 89)  (  7,  1, 12)  (  7,  1, 54)  (  9,  1, 54)
  0 -0.1269E-02  0  0.1203E-02  0  0.9080E-03  1 -0.7015E-03
   ( 11,  1, 35)  ( 11,  1, 70)  ( 11,  1, 53)  ( 11,  1, 70)

 MAXIMUM RESIDUAL FOR EACH ITERATION (1 INDICATES THE FIRST INNER ITERATION):

    RESIDUAL       RESIDUAL       RESIDUAL       RESIDUAL       RESIDUAL    
   LAYER,ROW,COL  LAYER,ROW,COL  LAYER,ROW,COL  LAYER,ROW,COL  LAYER,ROW,COL
 ---------------------------------------------------------------------------
  1 -0.1312E+06  0  0.9207E+05  0  0.9050E+05  0  0.3461E+05  0   5981.    
   ( 21,  1, 89)  ( 19,  1, 89)  ( 19,  1, 89)  ( 19,  1, 89)  ( 17,  1, 87)
  0  -2874.      0  -2371.      0  -889.9      1  -755.4    
   ( 22,  1, 87)  ( 22,  1, 87)  ( 22,  1, 87)  ( 22,  1, 87)


 FLOW MODEL IS TRANSIENT
 FLOW MODEL CONTAINS CONSTANT-HEAD CELLS


 MAXIMUM STEPSIZE DURING WHICH ANY PARTICLE CANNOT MOVE MORE THAN ONE CELL
 =  13.20    (WHEN MIN. R.F.=1)  AT K=  17, I=   1, J=  90

 MAXIMUM STEPSIZE WHICH MEETS STABILITY CRITERION OF THE ADVECTION TERM
 (FOR PURE FINITE-DIFFERENCE OPTION, MIXELM=0) 
 =  7.999    (WHEN MIN. R.F.=1)  AT K=  16, I=   1, J=  90


 TOTAL NUMBER OF POINT SOURCES/SINKS PRESENT IN THE FLOW MODEL =    30

 MAXIMUM STEPSIZE WHICH MEETS STABILITY CRITERION OF THE SINK & SOURCE TERM
 =  12.16    (WHEN MIN. R.F.=1)  AT K=  17, I=   1, J=  91

 MAXIMUM STEPSIZE WHICH MEETS STABILITY CRITERION OF THE DISPERSION TERM
 =  4.349    (WHEN MIN. R.F.=1)  AT K=  17, I=   1, J=  90
     1 CALLS TO GCG PACKAGE FOR TRANSPORT TIME STEP 396 IN FLOW TIME STEP   1 STRESS PERIOD   1
     9 TOTAL ITERATIONS
     1 CALLS TO GCG PACKAGE FOR TRANSPORT TIME STEP 396 IN FLOW TIME STEP   1 STRESS PERIOD   1
     8 TOTAL ITERATIONS
 
 SOLVING FOR HEAD 


     2 CALLS TO PCG ROUTINE FOR TIME STEP   1 IN STRESS PERIOD    1
     9 TOTAL ITERATIONS

 MAXIMUM HEAD CHANGE FOR EACH ITERATION (1 INDICATES THE FIRST INNER ITERATION):

    HEAD CHANGE    HEAD CHANGE    HEAD CHANGE    HEAD CHANGE    HEAD CHANGE 
   LAYER,ROW,COL  LAYER,ROW,COL  LAYER,ROW,COL  LAYER,ROW,COL  LAYER,ROW,COL
 ---------------------------------------------------------------------------
  1  0.1351E-01  0 -0.3645E-02  0 -0.2340E-02  0  0.9488E-02  0 -0.9574E-02
   ( 15,  1, 86)  ( 17,  1, 89)  (  8,  1, 12)  ( 11,  1, 56)  ( 11,  1, 55)
  0  0.1743E-02  0 -0.1076E-02  0 -0.5782E-03  1  0.4970E-03
   ( 11,  1, 53)  ( 11,  1, 64)  ( 11,  1, 49)  ( 11,  1, 53)

 MAXIMUM RESIDUAL FOR EACH ITERATION (1 INDICATES THE FIRST INNER ITERATION):

    RESIDUAL       RESIDUAL       RESIDUAL       RESIDUAL       RESIDUAL    
   LAYER,ROW,COL  LAYER,ROW,COL  LAYER,ROW,COL  LAYER,ROW,COL  LAYER,ROW,COL
 ---------------------------------------------------------------------------
  1  0.1309E+06  0 -0.9173E+05  0 -0.9005E+05  0 -0.2902E+05  0  -5362.    
   ( 21,  1, 89)  ( 19,  1, 89)  ( 19,  1, 89)  ( 19,  1, 89)  ( 17,  1, 87)
  0   2878.      0   2366.      0   889.0      1   782.5    
   ( 22,  1, 87)  ( 22,  1, 87)  ( 22,  1, 87)  ( 22,  1, 87)


 FLOW MODEL IS TRANSIENT
 FLOW MODEL CONTAINS CONSTANT-HEAD CELLS


 MAXIMUM STEPSIZE DURING WHICH ANY PARTICLE CANNOT MOVE MORE THAN ONE CELL
 =  12.86    (WHEN MIN. R.F.=1)  AT K=  17, I=   1, J=  90

 MAXIMUM STEPSIZE WHICH MEETS STABILITY CRITERION OF THE ADVECTION TERM
 (FOR PURE FINITE-DIFFERENCE OPTION, MIXELM=0) 
 =  8.035    (WHEN MIN. R.F.=1)  AT K=  16, I=   1, J=  90


 TOTAL NUMBER OF POINT SOURCES/SINKS PRESENT IN THE FLOW MODEL =    30

 MAXIMUM STEPSIZE WHICH MEETS STABILITY CRITERION OF THE SINK & SOURCE TERM
 =  12.21    (WHEN MIN. R.F.=1)  AT K=  17, I=   1, J=  91

 MAXIMUM STEPSIZE WHICH MEETS STABILITY CRITERION OF THE DISPERSION TERM
 =  4.033    (WHEN MIN. R.F.=1)  AT K=  17, I=   1, J=  90
     1 CALLS TO GCG PACKAGE FOR TRANSPORT TIME STEP 397 IN FLOW TIME STEP   1 STRESS PERIOD   1
     8 TOTAL ITERATIONS
     1 CALLS TO GCG PACKAGE FOR TRANSPORT TIME STEP 397 IN FLOW TIME STEP   1 STRESS PERIOD   1
     8 TOTAL ITERATIONS
 
 SOLVING FOR HEAD 


     2 CALLS TO PCG ROUTINE FOR TIME STEP   1 IN STRESS PERIOD    1
     9 TOTAL ITERATIONS

 MAXIMUM HEAD CHANGE FOR EACH ITERATION (1 INDICATES THE FIRST INNER ITERATION):

    HEAD CHANGE    HEAD CHANGE    HEAD CHANGE    HEAD CHANGE    HEAD CHANGE 
   LAYER,ROW,COL  LAYER,ROW,COL  LAYER,ROW,COL  LAYER,ROW,COL  LAYER,ROW,COL
 ---------------------------------------------------------------------------
  1 -0.1346E-01  0  0.3623E-02  0  0.2322E-02  0  0.8386E-02  0 -0.8420E-02
   ( 15,  1, 86)  ( 17,  1, 89)  (  7,  1, 12)  (  8,  1, 54)  ( 10,  1, 54)
  0 -0.1236E-02  0  0.1188E-02  0  0.9716E-03  1 -0.6332E-03
   ( 11,  1, 35)  ( 11,  1, 70)  ( 11,  1, 53)  ( 11,  1, 70)

 MAXIMUM RESIDUAL FOR EACH ITERATION (1 INDICATES THE FIRST INNER ITERATION):

    RESIDUAL       RESIDUAL       RESIDUAL       RESIDUAL       RESIDUAL    
   LAYER,ROW,COL  LAYER,ROW,COL  LAYER,ROW,COL  LAYER,ROW,COL  LAYER,ROW,COL
 ---------------------------------------------------------------------------
  1 -0.1311E+06  0  0.9199E+05  0  0.9043E+05  0  0.3630E+05  0   6004.    
   ( 21,  1, 89)  ( 19,  1, 89)  ( 19,  1, 89)  ( 19,  1, 89)  ( 17,  1, 87)
  0  -2881.      0  -2348.      0  -880.7      1  -750.0    
   ( 22,  1, 87)  ( 22,  1, 87)  ( 22,  1, 87)  ( 22,  1, 87)


 FLOW MODEL IS TRANSIENT
 FLOW MODEL CONTAINS CONSTANT-HEAD CELLS


 MAXIMUM STEPSIZE DURING WHICH ANY PARTICLE CANNOT MOVE MORE THAN ONE CELL
 =  13.20    (WHEN MIN. R.F.=1)  AT K=  17, I=   1, J=  90

 MAXIMUM STEPSIZE WHICH MEETS STABILITY CRITERION OF THE ADVECTION TERM
 (FOR PURE FINITE-DIFFERENCE OPTION, MIXELM=0) 
 =  7.999    (WHEN MIN. R.F.=1)  AT K=  16, I=   1, J=  90


 TOTAL NUMBER OF POINT SOURCES/SINKS PRESENT IN THE FLOW MODEL =    30

 MAXIMUM STEPSIZE WHICH MEETS STABILITY CRITERION OF THE SINK & SOURCE TERM
 =  12.16    (WHEN MIN. R.F.=1)  AT K=  17, I=   1, J=  91

 MAXIMUM STEPSIZE WHICH MEETS STABILITY CRITERION OF THE DISPERSION TERM
 =  4.348    (WHEN MIN. R.F.=1)  AT K=  17, I=   1, J=  90
     1 CALLS TO GCG PACKAGE FOR TRANSPORT TIME STEP 398 IN FLOW TIME STEP   1 STRESS PERIOD   1
     9 TOTAL ITERATIONS
     1 CALLS TO GCG PACKAGE FOR TRANSPORT TIME STEP 398 IN FLOW TIME STEP   1 STRESS PERIOD   1
     8 TOTAL ITERATIONS
 
 SOLVING FOR HEAD 


     2 CALLS TO PCG ROUTINE FOR TIME STEP   1 IN STRESS PERIOD    1
     9 TOTAL ITERATIONS

 MAXIMUM HEAD CHANGE FOR EACH ITERATION (1 INDICATES THE FIRST INNER ITERATION):

    HEAD CHANGE    HEAD CHANGE    HEAD CHANGE    HEAD CHANGE    HEAD CHANGE 
   LAYER,ROW,COL  LAYER,ROW,COL  LAYER,ROW,COL  LAYER,ROW,COL  LAYER,ROW,COL
 ---------------------------------------------------------------------------
  1  0.1351E-01  0 -0.3631E-02  0 -0.2342E-02  0  0.9897E-02  0 -0.1011E-01
   ( 15,  1, 86)  ( 17,  1, 89)  (  8,  1, 12)  ( 11,  1, 55)  ( 11,  1, 54)
  0  0.1630E-02  0 -0.1080E-02  0 -0.5941E-03  1  0.4546E-03
   ( 11,  1, 53)  ( 11,  1, 64)  ( 11,  1, 49)  ( 11,  1, 53)

 MAXIMUM RESIDUAL FOR EACH ITERATION (1 INDICATES THE FIRST INNER ITERATION):

    RESIDUAL       RESIDUAL       RESIDUAL       RESIDUAL       RESIDUAL    
   LAYER,ROW,COL  LAYER,ROW,COL  LAYER,ROW,COL  LAYER,ROW,COL  LAYER,ROW,COL
 ---------------------------------------------------------------------------
  1  0.1309E+06  0 -0.9172E+05  0 -0.8991E+05  0 -0.2945E+05  0  -5371.    
   ( 21,  1, 89)  ( 19,  1, 89)  ( 19,  1, 89)  ( 19,  1, 89)  ( 17,  1, 87)
  0   2881.      0   2226.      0   844.5      1   734.1    
   ( 22,  1, 87)  ( 22,  1, 87)  ( 22,  1, 87)  ( 22,  1, 87)


 FLOW MODEL IS TRANSIENT
 FLOW MODEL CONTAINS CONSTANT-HEAD CELLS


 MAXIMUM STEPSIZE DURING WHICH ANY PARTICLE CANNOT MOVE MORE THAN ONE CELL
 =  12.87    (WHEN MIN. R.F.=1)  AT K=  17, I=   1, J=  90

 MAXIMUM STEPSIZE WHICH MEETS STABILITY CRITERION OF THE ADVECTION TERM
 (FOR PURE FINITE-DIFFERENCE OPTION, MIXELM=0) 
 =  8.035    (WHEN MIN. R.F.=1)  AT K=  16, I=   1, J=  90


 TOTAL NUMBER OF POINT SOURCES/SINKS PRESENT IN THE FLOW MODEL =    30

 MAXIMUM STEPSIZE WHICH MEETS STABILITY CRITERION OF THE SINK & SOURCE TERM
 =  12.21    (WHEN MIN. R.F.=1)  AT K=  17, I=   1, J=  91

 MAXIMUM STEPSIZE WHICH MEETS STABILITY CRITERION OF THE DISPERSION TERM
 =  4.034    (WHEN MIN. R.F.=1)  AT K=  17, I=   1, J=  90
     1 CALLS TO GCG PACKAGE FOR TRANSPORT TIME STEP 399 IN FLOW TIME STEP   1 STRESS PERIOD   1
     8 TOTAL ITERATIONS
     1 CALLS TO GCG PACKAGE FOR TRANSPORT TIME STEP 399 IN FLOW TIME STEP   1 STRESS PERIOD   1
     8 TOTAL ITERATIONS
 
 SOLVING FOR HEAD 


     2 CALLS TO PCG ROUTINE FOR TIME STEP   1 IN STRESS PERIOD    1
     9 TOTAL ITERATIONS

 MAXIMUM HEAD CHANGE FOR EACH ITERATION (1 INDICATES THE FIRST INNER ITERATION):

    HEAD CHANGE    HEAD CHANGE    HEAD CHANGE    HEAD CHANGE    HEAD CHANGE 
   LAYER,ROW,COL  LAYER,ROW,COL  LAYER,ROW,COL  LAYER,ROW,COL  LAYER,ROW,COL
 ---------------------------------------------------------------------------
  1 -0.1346E-01  0  0.3607E-02  0  0.2319E-02  0  0.8548E-02  0 -0.8494E-02
   ( 15,  1, 86)  ( 17,  1, 89)  (  7,  1, 12)  (  8,  1, 54)  (  8,  1, 53)
  0 -0.1260E-02  0  0.1095E-02  0  0.9814E-03  1 -0.5348E-03
   ( 11,  1, 35)  ( 11,  1, 70)  ( 11,  1, 53)  ( 11,  1, 57)

 MAXIMUM RESIDUAL FOR EACH ITERATION (1 INDICATES THE FIRST INNER ITERATION):

    RESIDUAL       RESIDUAL       RESIDUAL       RESIDUAL       RESIDUAL    
   LAYER,ROW,COL  LAYER,ROW,COL  LAYER,ROW,COL  LAYER,ROW,COL  LAYER,ROW,COL
 ---------------------------------------------------------------------------
  1 -0.1309E+06  0  0.9174E+05  0  0.9017E+05  0  0.3858E+05  0   6025.    
   ( 21,  1, 89)  ( 19,  1, 89)  ( 19,  1, 89)  ( 19,  1, 89)  ( 17,  1, 87)
  0  -2885.      0  -2374.      0  -853.1      1  -730.5    
   ( 22,  1, 87)  ( 22,  1, 87)  ( 22,  1, 87)  ( 22,  1, 87)


 FLOW MODEL IS TRANSIENT
 FLOW MODEL CONTAINS CONSTANT-HEAD CELLS


 MAXIMUM STEPSIZE DURING WHICH ANY PARTICLE CANNOT MOVE MORE THAN ONE CELL
 =  13.20    (WHEN MIN. R.F.=1)  AT K=  17, I=   1, J=  90

 MAXIMUM STEPSIZE WHICH MEETS STABILITY CRITERION OF THE ADVECTION TERM
 (FOR PURE FINITE-DIFFERENCE OPTION, MIXELM=0) 
 =  8.000    (WHEN MIN. R.F.=1)  AT K=  16, I=   1, J=  90


 TOTAL NUMBER OF POINT SOURCES/SINKS PRESENT IN THE FLOW MODEL =    30

 MAXIMUM STEPSIZE WHICH MEETS STABILITY CRITERION OF THE SINK & SOURCE TERM
 =  12.17    (WHEN MIN. R.F.=1)  AT K=  17, I=   1, J=  91

 MAXIMUM STEPSIZE WHICH MEETS STABILITY CRITERION OF THE DISPERSION TERM
 =  4.349    (WHEN MIN. R.F.=1)  AT K=  17, I=   1, J=  90
     1 CALLS TO GCG PACKAGE FOR TRANSPORT TIME STEP 400 IN FLOW TIME STEP   1 STRESS PERIOD   1
     9 TOTAL ITERATIONS
  MAXIMUM CONCENTRATION CHANGES FOR EACH ITERATION:
  MAX. CHANGE LAYER,ROW,COL MAX. CHANGE LAYER,ROW,COL MAX. CHANGE LAYER,ROW,COL MAX. CHANGE LAYER,ROW,COL MAX. CHANGE LAYER,ROW,COL
 ------------------------------------------------------------------------------------------------------------------------------------
   0.4937E-01 ( 20,  1, 87)  0.3306E-02 ( 19,  1, 87)  0.2214E-02 ( 18,  1, 87)  0.2156E-03 ( 16,  1, 88)  0.1406E-03 ( 16,  1, 89)
   0.2972E-04 ( 16,  1, 90)  0.1776E-05 ( 21,  1, 78)  0.2957E-05 ( 21,  1, 78)  0.7355E-06 ( 16,  1, 89)
     1 CALLS TO GCG PACKAGE FOR TRANSPORT TIME STEP 400 IN FLOW TIME STEP   1 STRESS PERIOD   1
     8 TOTAL ITERATIONS
  MAXIMUM CONCENTRATION CHANGES FOR EACH ITERATION:
  MAX. CHANGE LAYER,ROW,COL MAX. CHANGE LAYER,ROW,COL MAX. CHANGE LAYER,ROW,COL MAX. CHANGE LAYER,ROW,COL MAX. CHANGE LAYER,ROW,COL
 ------------------------------------------------------------------------------------------------------------------------------------
   0.5628E-01 ( 20,  1, 87)  0.4398E-02 ( 19,  1, 87)  0.2321E-02 ( 18,  1, 87)  0.3412E-03 ( 18,  1, 87)  0.1374E-03 ( 16,  1, 89)
   0.3769E-04 ( 17,  1, 90)  0.6012E-05 ( 17,  1, 90)  0.5978E-06 ( 16,  1, 89)



 >>>>>>>>>>>>>>>>>>>>>>>>>>>>>>>>>>>>>>>>>>>>>>>>>>>>>>>FOR COMPONENT NO. 01<<<<<<<<<<<<<<<<<<<<<<<<<<<<<<<<<<<<<<<<<<<<<<<<<<<<<<<


                                            -------------------------------------------
                                                      TRANSPORT STEP NO.  400
                                            -------------------------------------------

 TOTAL ELAPSED TIME SINCE BEGINNING OF SIMULATION =   20000.00    D   
 .....................................................................

                     CUMMULATIVE MASS BUDGETS AT END OF TRANSPORT STEP  400, TIME STEP    1, STRESS PERIOD    1
                     ------------------------------------------------------------------------------------------

                                                             IN                           OUT
                                                      ----------------             ----------------
                               CONSTANT CONCENTRATION:    0.000000                    0.000000    
                                        CONSTANT HEAD:   0.7915815E+09              -0.7913798E+09
                                                WELLS:    0.000000                    0.000000    
                                             RECHARGE:    0.000000                    0.000000    
                               1ST/0TH ORDER REACTION:    0.000000                    0.000000    
                                MASS STORAGE (SOLUTE):   0.1106745E+09              -0.1108763E+09
                            ---------------------------------------------------------------------------
                                              [TOTAL]:   0.9022568E+09 KG           -0.9022570E+09 KG  

                                                          NET (IN - OUT):   -132.6120    
                                                   DISCREPANCY (PERCENT):  -0.1469781E-04



 >>>>>>>>>>>>>>>>>>>>>>>>>>>>>>>>>>>>>>>>>>>>>>>>>>>>>>>FOR COMPONENT NO. 02<<<<<<<<<<<<<<<<<<<<<<<<<<<<<<<<<<<<<<<<<<<<<<<<<<<<<<<


                                            -------------------------------------------
                                                      TRANSPORT STEP NO.  400
                                            -------------------------------------------

 TOTAL ELAPSED TIME SINCE BEGINNING OF SIMULATION =   20000.00    D   
 .....................................................................

                     CUMMULATIVE MASS BUDGETS AT END OF TRANSPORT STEP  400, TIME STEP    1, STRESS PERIOD    1
                     ------------------------------------------------------------------------------------------

                                                             IN                           OUT
                                                      ----------------             ----------------
                               CONSTANT CONCENTRATION:    0.000000                    0.000000    
                                        CONSTANT HEAD:    0.000000                  -0.1025951E+12
                                                WELLS:    0.000000                    0.000000    
                                             RECHARGE:    0.000000                    0.000000    
                               1ST/0TH ORDER REACTION:   0.3310000E+12                0.000000    
                                MASS STORAGE (SOLUTE):   0.2961852E+11              -0.2580235E+12
                            ---------------------------------------------------------------------------
                                              [TOTAL]:   0.3606190E+12 KG           -0.3606190E+12 KG  

                                                          NET (IN - OUT):   -31132.33    
                                                   DISCREPANCY (PERCENT):  -0.8633025E-05
 
 SOLVING FOR HEAD 


     2 CALLS TO PCG ROUTINE FOR TIME STEP   1 IN STRESS PERIOD    1
     9 TOTAL ITERATIONS

 MAXIMUM HEAD CHANGE FOR EACH ITERATION (1 INDICATES THE FIRST INNER ITERATION):

    HEAD CHANGE    HEAD CHANGE    HEAD CHANGE    HEAD CHANGE    HEAD CHANGE 
   LAYER,ROW,COL  LAYER,ROW,COL  LAYER,ROW,COL  LAYER,ROW,COL  LAYER,ROW,COL
 ---------------------------------------------------------------------------
  1  0.1349E-01  0 -0.3609E-02  0 -0.2358E-02  0  0.1022E-01  0 -0.1044E-01
   ( 15,  1, 86)  ( 17,  1, 89)  (  8,  1, 12)  ( 11,  1, 54)  ( 11,  1, 54)
  0  0.1594E-02  0 -0.1083E-02  0 -0.5718E-03  1  0.4762E-03
   ( 11,  1, 53)  ( 11,  1, 64)  ( 11,  1, 49)  ( 11,  1, 70)

 MAXIMUM RESIDUAL FOR EACH ITERATION (1 INDICATES THE FIRST INNER ITERATION):

    RESIDUAL       RESIDUAL       RESIDUAL       RESIDUAL       RESIDUAL    
   LAYER,ROW,COL  LAYER,ROW,COL  LAYER,ROW,COL  LAYER,ROW,COL  LAYER,ROW,COL
 ---------------------------------------------------------------------------
  1  0.1307E+06  0 -0.9158E+05  0 -0.8957E+05  0 -0.2909E+05  0  -5375.    
   ( 21,  1, 89)  ( 19,  1, 89)  ( 19,  1, 89)  ( 19,  1, 89)  ( 17,  1, 87)
  0   2883.      0   2057.      0   816.7      1   704.1    
   ( 22,  1, 87)  ( 22,  1, 87)  ( 22,  1, 87)  ( 22,  1, 87)


 FLOW MODEL IS TRANSIENT
 FLOW MODEL CONTAINS CONSTANT-HEAD CELLS


 MAXIMUM STEPSIZE DURING WHICH ANY PARTICLE CANNOT MOVE MORE THAN ONE CELL
 =  12.87    (WHEN MIN. R.F.=1)  AT K=  17, I=   1, J=  90

 MAXIMUM STEPSIZE WHICH MEETS STABILITY CRITERION OF THE ADVECTION TERM
 (FOR PURE FINITE-DIFFERENCE OPTION, MIXELM=0) 
 =  8.035    (WHEN MIN. R.F.=1)  AT K=  16, I=   1, J=  90


 TOTAL NUMBER OF POINT SOURCES/SINKS PRESENT IN THE FLOW MODEL =    30

 MAXIMUM STEPSIZE WHICH MEETS STABILITY CRITERION OF THE SINK & SOURCE TERM
 =  12.21    (WHEN MIN. R.F.=1)  AT K=  17, I=   1, J=  91

 MAXIMUM STEPSIZE WHICH MEETS STABILITY CRITERION OF THE DISPERSION TERM
 =  4.034    (WHEN MIN. R.F.=1)  AT K=  17, I=   1, J=  90
     1 CALLS TO GCG PACKAGE FOR TRANSPORT TIME STEP 401 IN FLOW TIME STEP   1 STRESS PERIOD   1
     8 TOTAL ITERATIONS
     1 CALLS TO GCG PACKAGE FOR TRANSPORT TIME STEP 401 IN FLOW TIME STEP   1 STRESS PERIOD   1
     8 TOTAL ITERATIONS
 
 SOLVING FOR HEAD 


     2 CALLS TO PCG ROUTINE FOR TIME STEP   1 IN STRESS PERIOD    1
    10 TOTAL ITERATIONS

 MAXIMUM HEAD CHANGE FOR EACH ITERATION (1 INDICATES THE FIRST INNER ITERATION):

    HEAD CHANGE    HEAD CHANGE    HEAD CHANGE    HEAD CHANGE    HEAD CHANGE 
   LAYER,ROW,COL  LAYER,ROW,COL  LAYER,ROW,COL  LAYER,ROW,COL  LAYER,ROW,COL
 ---------------------------------------------------------------------------
  1 -0.1347E-01  0  0.3594E-02  0  0.2315E-02  0  0.8627E-02  0 -0.8539E-02
   ( 15,  1, 86)  ( 17,  1, 89)  (  7,  1, 12)  ( 10,  1, 54)  (  9,  1, 53)
  0 -0.1177E-02  0  0.1129E-02  0  0.1028E-02  0 -0.5841E-03  1 -0.1439E-03
   ( 11,  1, 35)  ( 11,  1, 70)  ( 11,  1, 53)  ( 11,  1, 70)  ( 11,  1, 64)

 MAXIMUM RESIDUAL FOR EACH ITERATION (1 INDICATES THE FIRST INNER ITERATION):

    RESIDUAL       RESIDUAL       RESIDUAL       RESIDUAL       RESIDUAL    
   LAYER,ROW,COL  LAYER,ROW,COL  LAYER,ROW,COL  LAYER,ROW,COL  LAYER,ROW,COL
 ---------------------------------------------------------------------------
  1 -0.1308E+06  0  0.9164E+05  0  0.9004E+05  0  0.3985E+05  0   6025.    
   ( 21,  1, 89)  ( 19,  1, 89)  ( 19,  1, 89)  ( 19,  1, 89)  ( 17,  1, 87)
  0  -2889.      0  -2255.      0  -820.3      0  -347.6      1  -312.3    
   ( 22,  1, 87)  ( 22,  1, 87)  ( 22,  1, 87)  ( 22,  1, 87)  ( 22,  1, 87)


 FLOW MODEL IS TRANSIENT
 FLOW MODEL CONTAINS CONSTANT-HEAD CELLS


 MAXIMUM STEPSIZE DURING WHICH ANY PARTICLE CANNOT MOVE MORE THAN ONE CELL
 =  13.20    (WHEN MIN. R.F.=1)  AT K=  17, I=   1, J=  90

 MAXIMUM STEPSIZE WHICH MEETS STABILITY CRITERION OF THE ADVECTION TERM
 (FOR PURE FINITE-DIFFERENCE OPTION, MIXELM=0) 
 =  8.000    (WHEN MIN. R.F.=1)  AT K=  16, I=   1, J=  90


 TOTAL NUMBER OF POINT SOURCES/SINKS PRESENT IN THE FLOW MODEL =    30

 MAXIMUM STEPSIZE WHICH MEETS STABILITY CRITERION OF THE SINK & SOURCE TERM
 =  12.17    (WHEN MIN. R.F.=1)  AT K=  17, I=   1, J=  91

 MAXIMUM STEPSIZE WHICH MEETS STABILITY CRITERION OF THE DISPERSION TERM
 =  4.348    (WHEN MIN. R.F.=1)  AT K=  17, I=   1, J=  90
     1 CALLS TO GCG PACKAGE FOR TRANSPORT TIME STEP 402 IN FLOW TIME STEP   1 STRESS PERIOD   1
     9 TOTAL ITERATIONS
     1 CALLS TO GCG PACKAGE FOR TRANSPORT TIME STEP 402 IN FLOW TIME STEP   1 STRESS PERIOD   1
     8 TOTAL ITERATIONS
 
 SOLVING FOR HEAD 


     2 CALLS TO PCG ROUTINE FOR TIME STEP   1 IN STRESS PERIOD    1
     9 TOTAL ITERATIONS

 MAXIMUM HEAD CHANGE FOR EACH ITERATION (1 INDICATES THE FIRST INNER ITERATION):

    HEAD CHANGE    HEAD CHANGE    HEAD CHANGE    HEAD CHANGE    HEAD CHANGE 
   LAYER,ROW,COL  LAYER,ROW,COL  LAYER,ROW,COL  LAYER,ROW,COL  LAYER,ROW,COL
 ---------------------------------------------------------------------------
  1  0.1341E-01  0 -0.3498E-02  0 -0.3414E-02  0 -0.3721E-02  0  0.6204E-02
   ( 15,  1, 86)  ( 17,  1, 89)  (  8,  1, 12)  ( 11,  1, 57)  ( 11,  1, 57)
  0 -0.2130E-02  0 -0.1182E-02  0 -0.6808E-03  1  0.4336E-03
   ( 11,  1, 54)  ( 11,  1, 70)  ( 11,  1, 53)  ( 11,  1, 64)

 MAXIMUM RESIDUAL FOR EACH ITERATION (1 INDICATES THE FIRST INNER ITERATION):

    RESIDUAL       RESIDUAL       RESIDUAL       RESIDUAL       RESIDUAL    
   LAYER,ROW,COL  LAYER,ROW,COL  LAYER,ROW,COL  LAYER,ROW,COL  LAYER,ROW,COL
 ---------------------------------------------------------------------------
  1  0.1303E+06  0 -0.9078E+05  0 -0.8352E+05  0 -0.1307E+05  0   3842.    
   ( 21,  1, 89)  ( 19,  1, 89)  ( 19,  1, 89)  ( 17,  1, 87)  ( 18,  1, 89)
  0   2887.      0   1846.      0   620.0      1   529.8    
   ( 22,  1, 87)  ( 22,  1, 87)  ( 22,  1, 87)  ( 22,  1, 87)


 FLOW MODEL IS TRANSIENT
 FLOW MODEL CONTAINS CONSTANT-HEAD CELLS


 MAXIMUM STEPSIZE DURING WHICH ANY PARTICLE CANNOT MOVE MORE THAN ONE CELL
 =  12.85    (WHEN MIN. R.F.=1)  AT K=  17, I=   1, J=  90

 MAXIMUM STEPSIZE WHICH MEETS STABILITY CRITERION OF THE ADVECTION TERM
 (FOR PURE FINITE-DIFFERENCE OPTION, MIXELM=0) 
 =  8.030    (WHEN MIN. R.F.=1)  AT K=  16, I=   1, J=  90


 TOTAL NUMBER OF POINT SOURCES/SINKS PRESENT IN THE FLOW MODEL =    30

 MAXIMUM STEPSIZE WHICH MEETS STABILITY CRITERION OF THE SINK & SOURCE TERM
 =  12.19    (WHEN MIN. R.F.=1)  AT K=  17, I=   1, J=  91

 MAXIMUM STEPSIZE WHICH MEETS STABILITY CRITERION OF THE DISPERSION TERM
 =  4.030    (WHEN MIN. R.F.=1)  AT K=  17, I=   1, J=  90
     1 CALLS TO GCG PACKAGE FOR TRANSPORT TIME STEP 403 IN FLOW TIME STEP   1 STRESS PERIOD   1
     8 TOTAL ITERATIONS
     1 CALLS TO GCG PACKAGE FOR TRANSPORT TIME STEP 403 IN FLOW TIME STEP   1 STRESS PERIOD   1
     8 TOTAL ITERATIONS
 
 SOLVING FOR HEAD 


     2 CALLS TO PCG ROUTINE FOR TIME STEP   1 IN STRESS PERIOD    1
     8 TOTAL ITERATIONS

 MAXIMUM HEAD CHANGE FOR EACH ITERATION (1 INDICATES THE FIRST INNER ITERATION):

    HEAD CHANGE    HEAD CHANGE    HEAD CHANGE    HEAD CHANGE    HEAD CHANGE 
   LAYER,ROW,COL  LAYER,ROW,COL  LAYER,ROW,COL  LAYER,ROW,COL  LAYER,ROW,COL
 ---------------------------------------------------------------------------
  1 -0.1338E-01  0  0.3465E-02  0  0.2488E-02  0  0.6472E-02  0 -0.7038E-02
   ( 15,  1, 86)  ( 17,  1, 89)  (  8,  1, 12)  ( 11,  1, 35)  ( 11,  1, 35)
  0 -0.1826E-02  0 -0.9070E-03  1  0.8539E-03
   ( 11,  1, 70)  ( 11,  1, 53)  ( 11,  1, 53)

 MAXIMUM RESIDUAL FOR EACH ITERATION (1 INDICATES THE FIRST INNER ITERATION):

    RESIDUAL       RESIDUAL       RESIDUAL       RESIDUAL       RESIDUAL    
   LAYER,ROW,COL  LAYER,ROW,COL  LAYER,ROW,COL  LAYER,ROW,COL  LAYER,ROW,COL
 ---------------------------------------------------------------------------
  1 -0.1297E+06  0  0.9047E+05  0  0.8777E+05  0  0.2151E+05  0   5525.    
   ( 21,  1, 89)  ( 19,  1, 89)  ( 19,  1, 89)  ( 19,  1, 89)  ( 17,  1, 87)
  0  -2864.      0  -2521.      1  -1959.    
   ( 22,  1, 87)  ( 22,  1, 87)  ( 22,  1, 87)


 FLOW MODEL IS TRANSIENT
 FLOW MODEL CONTAINS CONSTANT-HEAD CELLS


 MAXIMUM STEPSIZE DURING WHICH ANY PARTICLE CANNOT MOVE MORE THAN ONE CELL
 =  13.21    (WHEN MIN. R.F.=1)  AT K=  17, I=   1, J=  90

 MAXIMUM STEPSIZE WHICH MEETS STABILITY CRITERION OF THE ADVECTION TERM
 (FOR PURE FINITE-DIFFERENCE OPTION, MIXELM=0) 
 =  8.006    (WHEN MIN. R.F.=1)  AT K=  16, I=   1, J=  90


 TOTAL NUMBER OF POINT SOURCES/SINKS PRESENT IN THE FLOW MODEL =    30

 MAXIMUM STEPSIZE WHICH MEETS STABILITY CRITERION OF THE SINK & SOURCE TERM
 =  12.17    (WHEN MIN. R.F.=1)  AT K=  17, I=   1, J=  91

 MAXIMUM STEPSIZE WHICH MEETS STABILITY CRITERION OF THE DISPERSION TERM
 =  4.349    (WHEN MIN. R.F.=1)  AT K=  17, I=   1, J=  90
     1 CALLS TO GCG PACKAGE FOR TRANSPORT TIME STEP 404 IN FLOW TIME STEP   1 STRESS PERIOD   1
     8 TOTAL ITERATIONS
     1 CALLS TO GCG PACKAGE FOR TRANSPORT TIME STEP 404 IN FLOW TIME STEP   1 STRESS PERIOD   1
     8 TOTAL ITERATIONS
 
 SOLVING FOR HEAD 


     2 CALLS TO PCG ROUTINE FOR TIME STEP   1 IN STRESS PERIOD    1
     9 TOTAL ITERATIONS

 MAXIMUM HEAD CHANGE FOR EACH ITERATION (1 INDICATES THE FIRST INNER ITERATION):

    HEAD CHANGE    HEAD CHANGE    HEAD CHANGE    HEAD CHANGE    HEAD CHANGE 
   LAYER,ROW,COL  LAYER,ROW,COL  LAYER,ROW,COL  LAYER,ROW,COL  LAYER,ROW,COL
 ---------------------------------------------------------------------------
  1  0.1374E-01  0  0.7868E-02  0 -0.3490E-02  0 -0.1761E-01  0  0.1464E-01
   ( 15,  1, 86)  ( 11,  1, 53)  (  8,  1, 12)  ( 11,  1, 53)  ( 11,  1, 53)
  0 -0.4039E-02  0 -0.1019E-02  0 -0.5494E-03  1 -0.4522E-03
   ( 11,  1, 49)  ( 11,  1, 65)  ( 11,  1, 63)  ( 11,  1, 49)

 MAXIMUM RESIDUAL FOR EACH ITERATION (1 INDICATES THE FIRST INNER ITERATION):

    RESIDUAL       RESIDUAL       RESIDUAL       RESIDUAL       RESIDUAL    
   LAYER,ROW,COL  LAYER,ROW,COL  LAYER,ROW,COL  LAYER,ROW,COL  LAYER,ROW,COL
 ---------------------------------------------------------------------------
  1  0.1313E+06  0 -0.9271E+05  0 -0.9185E+05  0 -0.5506E+05  0  -5766.    
   ( 21,  1, 89)  ( 19,  1, 89)  ( 19,  1, 89)  ( 19,  1, 89)  ( 17,  1, 87)
  0   2856.      0   2613.      0   1845.      1   1635.    
   ( 17,  1, 88)  ( 22,  1, 87)  ( 22,  1, 87)  ( 22,  1, 87)


 FLOW MODEL IS TRANSIENT
 FLOW MODEL CONTAINS CONSTANT-HEAD CELLS


 MAXIMUM STEPSIZE DURING WHICH ANY PARTICLE CANNOT MOVE MORE THAN ONE CELL
 =  12.91    (WHEN MIN. R.F.=1)  AT K=  17, I=   1, J=  90

 MAXIMUM STEPSIZE WHICH MEETS STABILITY CRITERION OF THE ADVECTION TERM
 (FOR PURE FINITE-DIFFERENCE OPTION, MIXELM=0) 
 =  8.057    (WHEN MIN. R.F.=1)  AT K=  16, I=   1, J=  90


 TOTAL NUMBER OF POINT SOURCES/SINKS PRESENT IN THE FLOW MODEL =    30

 MAXIMUM STEPSIZE WHICH MEETS STABILITY CRITERION OF THE SINK & SOURCE TERM
 =  12.28    (WHEN MIN. R.F.=1)  AT K=  17, I=   1, J=  91

 MAXIMUM STEPSIZE WHICH MEETS STABILITY CRITERION OF THE DISPERSION TERM
 =  4.053    (WHEN MIN. R.F.=1)  AT K=  17, I=   1, J=  90
     1 CALLS TO GCG PACKAGE FOR TRANSPORT TIME STEP 405 IN FLOW TIME STEP   1 STRESS PERIOD   1
     8 TOTAL ITERATIONS
  MAXIMUM CONCENTRATION CHANGES FOR EACH ITERATION:
  MAX. CHANGE LAYER,ROW,COL MAX. CHANGE LAYER,ROW,COL MAX. CHANGE LAYER,ROW,COL MAX. CHANGE LAYER,ROW,COL MAX. CHANGE LAYER,ROW,COL
 ------------------------------------------------------------------------------------------------------------------------------------
   0.5182E-01 ( 20,  1, 87)  0.4159E-02 ( 19,  1, 89)  0.2079E-02 ( 18,  1, 86)  0.4832E-03 ( 20,  1, 89)  0.9534E-04 ( 16,  1, 89)
   0.2011E-04 ( 20,  1, 89)  0.1793E-04 ( 16,  1, 90)  0.6425E-06 ( 17,  1, 90)
     1 CALLS TO GCG PACKAGE FOR TRANSPORT TIME STEP 405 IN FLOW TIME STEP   1 STRESS PERIOD   1
     8 TOTAL ITERATIONS
  MAXIMUM CONCENTRATION CHANGES FOR EACH ITERATION:
  MAX. CHANGE LAYER,ROW,COL MAX. CHANGE LAYER,ROW,COL MAX. CHANGE LAYER,ROW,COL MAX. CHANGE LAYER,ROW,COL MAX. CHANGE LAYER,ROW,COL
 ------------------------------------------------------------------------------------------------------------------------------------
   0.6088E-01 ( 20,  1, 87)  0.4883E-02 ( 19,  1, 89)  0.2039E-02 ( 18,  1, 86)  0.4863E-03 ( 19,  1, 89)  0.1132E-03 ( 16,  1, 89)
   0.2591E-04 ( 23,  1, 87)  0.1473E-04 ( 17,  1, 90)  0.9040E-06 ( 17,  1, 90)
 
 SOLVING FOR HEAD 


     2 CALLS TO PCG ROUTINE FOR TIME STEP   1 IN STRESS PERIOD    1
     9 TOTAL ITERATIONS

 MAXIMUM HEAD CHANGE FOR EACH ITERATION (1 INDICATES THE FIRST INNER ITERATION):

    HEAD CHANGE    HEAD CHANGE    HEAD CHANGE    HEAD CHANGE    HEAD CHANGE 
   LAYER,ROW,COL  LAYER,ROW,COL  LAYER,ROW,COL  LAYER,ROW,COL  LAYER,ROW,COL
 ---------------------------------------------------------------------------
  1 -0.1377E-01  0  0.4072E-02  0  0.4277E-02  0  0.9598E-02  0 -0.9398E-02
   ( 15,  1, 86)  ( 17,  1, 89)  (  8,  1, 12)  (  6,  1, 42)  (  8,  1, 43)
  0  0.1803E-02  0  0.1130E-02  0  0.8643E-03  1 -0.9038E-03
   ( 11,  1, 64)  ( 11,  1, 50)  ( 11,  1, 70)  ( 11,  1, 70)

 MAXIMUM RESIDUAL FOR EACH ITERATION (1 INDICATES THE FIRST INNER ITERATION):

    RESIDUAL       RESIDUAL       RESIDUAL       RESIDUAL       RESIDUAL    
   LAYER,ROW,COL  LAYER,ROW,COL  LAYER,ROW,COL  LAYER,ROW,COL  LAYER,ROW,COL
 ---------------------------------------------------------------------------
  1 -0.1339E+06  0  0.9523E+05  0  0.9452E+05  0  0.3680E+05  0   5507.    
   ( 21,  1, 89)  ( 19,  1, 89)  ( 19,  1, 89)  ( 19,  1, 89)  ( 17,  1, 87)
  0  -2874.      0  -2646.      0  -899.0      1  -784.4    
   ( 22,  1, 87)  ( 22,  1, 87)  ( 22,  1, 87)  ( 22,  1, 87)


 FLOW MODEL IS TRANSIENT
 FLOW MODEL CONTAINS CONSTANT-HEAD CELLS


 MAXIMUM STEPSIZE DURING WHICH ANY PARTICLE CANNOT MOVE MORE THAN ONE CELL
 =  13.21    (WHEN MIN. R.F.=1)  AT K=  17, I=   1, J=  90

 MAXIMUM STEPSIZE WHICH MEETS STABILITY CRITERION OF THE ADVECTION TERM
 (FOR PURE FINITE-DIFFERENCE OPTION, MIXELM=0) 
 =  7.998    (WHEN MIN. R.F.=1)  AT K=  16, I=   1, J=  90


 TOTAL NUMBER OF POINT SOURCES/SINKS PRESENT IN THE FLOW MODEL =    30

 MAXIMUM STEPSIZE WHICH MEETS STABILITY CRITERION OF THE SINK & SOURCE TERM
 =  12.18    (WHEN MIN. R.F.=1)  AT K=  17, I=   1, J=  91

 MAXIMUM STEPSIZE WHICH MEETS STABILITY CRITERION OF THE DISPERSION TERM
 =  4.358    (WHEN MIN. R.F.=1)  AT K=  17, I=   1, J=  90
     1 CALLS TO GCG PACKAGE FOR TRANSPORT TIME STEP 406 IN FLOW TIME STEP   1 STRESS PERIOD   1
     9 TOTAL ITERATIONS
     1 CALLS TO GCG PACKAGE FOR TRANSPORT TIME STEP 406 IN FLOW TIME STEP   1 STRESS PERIOD   1
     8 TOTAL ITERATIONS
 
 SOLVING FOR HEAD 


     2 CALLS TO PCG ROUTINE FOR TIME STEP   1 IN STRESS PERIOD    1
     9 TOTAL ITERATIONS

 MAXIMUM HEAD CHANGE FOR EACH ITERATION (1 INDICATES THE FIRST INNER ITERATION):

    HEAD CHANGE    HEAD CHANGE    HEAD CHANGE    HEAD CHANGE    HEAD CHANGE 
   LAYER,ROW,COL  LAYER,ROW,COL  LAYER,ROW,COL  LAYER,ROW,COL  LAYER,ROW,COL
 ---------------------------------------------------------------------------
  1  0.1336E-01  0 -0.3838E-02  0 -0.2429E-02  0  0.1061E-01  0 -0.1090E-01
   ( 15,  1, 86)  ( 17,  1, 89)  (  8,  1, 12)  ( 11,  1, 69)  ( 11,  1, 69)
  0  0.2296E-02  0 -0.1265E-02  0 -0.6577E-03  1  0.6280E-03
   ( 11,  1, 66)  ( 11,  1, 64)  ( 11,  1, 66)  ( 11,  1, 65)

 MAXIMUM RESIDUAL FOR EACH ITERATION (1 INDICATES THE FIRST INNER ITERATION):

    RESIDUAL       RESIDUAL       RESIDUAL       RESIDUAL       RESIDUAL    
   LAYER,ROW,COL  LAYER,ROW,COL  LAYER,ROW,COL  LAYER,ROW,COL  LAYER,ROW,COL
 ---------------------------------------------------------------------------
  1  0.1345E+06  0 -0.9572E+05  0 -0.9350E+05  0 -0.2494E+05  0  -5256.    
   ( 21,  1, 89)  ( 19,  1, 89)  ( 19,  1, 89)  ( 19,  1, 89)  ( 17,  1, 87)
  0   2780.      0   2502.      0   1068.      1   935.1    
   ( 22,  1, 87)  ( 22,  1, 87)  ( 22,  1, 87)  ( 22,  1, 87)


 FLOW MODEL IS TRANSIENT
 FLOW MODEL CONTAINS CONSTANT-HEAD CELLS


 MAXIMUM STEPSIZE DURING WHICH ANY PARTICLE CANNOT MOVE MORE THAN ONE CELL
 =  12.85    (WHEN MIN. R.F.=1)  AT K=  17, I=   1, J=  90

 MAXIMUM STEPSIZE WHICH MEETS STABILITY CRITERION OF THE ADVECTION TERM
 (FOR PURE FINITE-DIFFERENCE OPTION, MIXELM=0) 
 =  8.033    (WHEN MIN. R.F.=1)  AT K=  16, I=   1, J=  90


 TOTAL NUMBER OF POINT SOURCES/SINKS PRESENT IN THE FLOW MODEL =    30

 MAXIMUM STEPSIZE WHICH MEETS STABILITY CRITERION OF THE SINK & SOURCE TERM
 =  12.20    (WHEN MIN. R.F.=1)  AT K=  17, I=   1, J=  91

 MAXIMUM STEPSIZE WHICH MEETS STABILITY CRITERION OF THE DISPERSION TERM
 =  4.022    (WHEN MIN. R.F.=1)  AT K=  17, I=   1, J=  90
     1 CALLS TO GCG PACKAGE FOR TRANSPORT TIME STEP 407 IN FLOW TIME STEP   1 STRESS PERIOD   1
     8 TOTAL ITERATIONS
     1 CALLS TO GCG PACKAGE FOR TRANSPORT TIME STEP 407 IN FLOW TIME STEP   1 STRESS PERIOD   1
     8 TOTAL ITERATIONS
 
 SOLVING FOR HEAD 


     2 CALLS TO PCG ROUTINE FOR TIME STEP   1 IN STRESS PERIOD    1
    10 TOTAL ITERATIONS

 MAXIMUM HEAD CHANGE FOR EACH ITERATION (1 INDICATES THE FIRST INNER ITERATION):

    HEAD CHANGE    HEAD CHANGE    HEAD CHANGE    HEAD CHANGE    HEAD CHANGE 
   LAYER,ROW,COL  LAYER,ROW,COL  LAYER,ROW,COL  LAYER,ROW,COL  LAYER,ROW,COL
 ---------------------------------------------------------------------------
  1 -0.1349E-01  0  0.3759E-02  0  0.2915E-02  0  0.8858E-02  0 -0.8899E-02
   ( 15,  1, 86)  ( 17,  1, 89)  (  8,  1, 12)  (  6,  1, 45)  (  6,  1, 45)
  0  0.1674E-02  0  0.1118E-02  0  0.1091E-02  0 -0.9494E-03  1 -0.2672E-03
   ( 11,  1, 65)  ( 11,  1, 57)  ( 11,  1, 70)  ( 11,  1, 70)  ( 11,  1, 64)

 MAXIMUM RESIDUAL FOR EACH ITERATION (1 INDICATES THE FIRST INNER ITERATION):

    RESIDUAL       RESIDUAL       RESIDUAL       RESIDUAL       RESIDUAL    
   LAYER,ROW,COL  LAYER,ROW,COL  LAYER,ROW,COL  LAYER,ROW,COL  LAYER,ROW,COL
 ---------------------------------------------------------------------------
  1 -0.1309E+06  0  0.9121E+05  0  0.9024E+05  0  0.3326E+05  0   5943.    
   ( 21,  1, 89)  ( 19,  1, 89)  ( 19,  1, 89)  ( 19,  1, 89)  ( 17,  1, 87)
  0  -2865.      0  -2574.      0  -955.4      0  -394.8      1  -348.0    
   ( 22,  1, 87)  ( 22,  1, 87)  ( 22,  1, 87)  ( 22,  1, 87)  ( 22,  1, 87)


 FLOW MODEL IS TRANSIENT
 FLOW MODEL CONTAINS CONSTANT-HEAD CELLS


 MAXIMUM STEPSIZE DURING WHICH ANY PARTICLE CANNOT MOVE MORE THAN ONE CELL
 =  13.20    (WHEN MIN. R.F.=1)  AT K=  17, I=   1, J=  90

 MAXIMUM STEPSIZE WHICH MEETS STABILITY CRITERION OF THE ADVECTION TERM
 (FOR PURE FINITE-DIFFERENCE OPTION, MIXELM=0) 
 =  7.999    (WHEN MIN. R.F.=1)  AT K=  16, I=   1, J=  90


 TOTAL NUMBER OF POINT SOURCES/SINKS PRESENT IN THE FLOW MODEL =    30

 MAXIMUM STEPSIZE WHICH MEETS STABILITY CRITERION OF THE SINK & SOURCE TERM
 =  12.16    (WHEN MIN. R.F.=1)  AT K=  17, I=   1, J=  91

 MAXIMUM STEPSIZE WHICH MEETS STABILITY CRITERION OF THE DISPERSION TERM
 =  4.355    (WHEN MIN. R.F.=1)  AT K=  17, I=   1, J=  90
     1 CALLS TO GCG PACKAGE FOR TRANSPORT TIME STEP 408 IN FLOW TIME STEP   1 STRESS PERIOD   1
     9 TOTAL ITERATIONS
     1 CALLS TO GCG PACKAGE FOR TRANSPORT TIME STEP 408 IN FLOW TIME STEP   1 STRESS PERIOD   1
     8 TOTAL ITERATIONS
 
 SOLVING FOR HEAD 


     2 CALLS TO PCG ROUTINE FOR TIME STEP   1 IN STRESS PERIOD    1
     8 TOTAL ITERATIONS

 MAXIMUM HEAD CHANGE FOR EACH ITERATION (1 INDICATES THE FIRST INNER ITERATION):

    HEAD CHANGE    HEAD CHANGE    HEAD CHANGE    HEAD CHANGE    HEAD CHANGE 
   LAYER,ROW,COL  LAYER,ROW,COL  LAYER,ROW,COL  LAYER,ROW,COL  LAYER,ROW,COL
 ---------------------------------------------------------------------------
  1  0.1338E-01  0 -0.3654E-02  0 -0.5432E-02  0  0.4920E-02  0 -0.7514E-02
   ( 15,  1, 86)  ( 17,  1, 89)  (  7,  1, 12)  (  8,  1, 12)  ( 11,  1, 52)
  0  0.2997E-02  0 -0.9092E-03  1 -0.8146E-03
   ( 11,  1, 51)  ( 11,  1, 58)  ( 11,  1, 64)

 MAXIMUM RESIDUAL FOR EACH ITERATION (1 INDICATES THE FIRST INNER ITERATION):

    RESIDUAL       RESIDUAL       RESIDUAL       RESIDUAL       RESIDUAL    
   LAYER,ROW,COL  LAYER,ROW,COL  LAYER,ROW,COL  LAYER,ROW,COL  LAYER,ROW,COL
 ---------------------------------------------------------------------------
  1  0.1311E+06  0 -0.9165E+05  0 -0.6409E+05  0 -0.1340E+05  0   3833.    
   ( 21,  1, 89)  ( 19,  1, 89)  ( 19,  1, 89)  ( 17,  1, 87)  ( 18,  1, 89)
  0   2864.      0   2282.      1   1976.    
   ( 22,  1, 87)  ( 22,  1, 87)  ( 22,  1, 87)


 FLOW MODEL IS TRANSIENT
 FLOW MODEL CONTAINS CONSTANT-HEAD CELLS


 MAXIMUM STEPSIZE DURING WHICH ANY PARTICLE CANNOT MOVE MORE THAN ONE CELL
 =  12.84    (WHEN MIN. R.F.=1)  AT K=  17, I=   1, J=  90

 MAXIMUM STEPSIZE WHICH MEETS STABILITY CRITERION OF THE ADVECTION TERM
 (FOR PURE FINITE-DIFFERENCE OPTION, MIXELM=0) 
 =  8.025    (WHEN MIN. R.F.=1)  AT K=  16, I=   1, J=  90


 TOTAL NUMBER OF POINT SOURCES/SINKS PRESENT IN THE FLOW MODEL =    30

 MAXIMUM STEPSIZE WHICH MEETS STABILITY CRITERION OF THE SINK & SOURCE TERM
 =  12.19    (WHEN MIN. R.F.=1)  AT K=  17, I=   1, J=  91

 MAXIMUM STEPSIZE WHICH MEETS STABILITY CRITERION OF THE DISPERSION TERM
 =  4.024    (WHEN MIN. R.F.=1)  AT K=  17, I=   1, J=  90
     1 CALLS TO GCG PACKAGE FOR TRANSPORT TIME STEP 409 IN FLOW TIME STEP   1 STRESS PERIOD   1
     8 TOTAL ITERATIONS
     1 CALLS TO GCG PACKAGE FOR TRANSPORT TIME STEP 409 IN FLOW TIME STEP   1 STRESS PERIOD   1
     8 TOTAL ITERATIONS
 
 SOLVING FOR HEAD 


     2 CALLS TO PCG ROUTINE FOR TIME STEP   1 IN STRESS PERIOD    1
    10 TOTAL ITERATIONS

 MAXIMUM HEAD CHANGE FOR EACH ITERATION (1 INDICATES THE FIRST INNER ITERATION):

    HEAD CHANGE    HEAD CHANGE    HEAD CHANGE    HEAD CHANGE    HEAD CHANGE 
   LAYER,ROW,COL  LAYER,ROW,COL  LAYER,ROW,COL  LAYER,ROW,COL  LAYER,ROW,COL
 ---------------------------------------------------------------------------
  1 -0.1372E-01  0 -0.4983E-02  0  0.3933E-02  0  0.1205E-01  0 -0.9231E-02
   ( 15,  1, 86)  ( 11,  1, 64)  (  8,  1, 12)  ( 11,  1, 64)  ( 11,  1, 65)
  0  0.3038E-02  0  0.1415E-02  0  0.1008E-02  0 -0.6564E-03  1 -0.2673E-03
   ( 11,  1, 58)  ( 11,  1, 64)  ( 11,  1, 54)  ( 11,  1, 53)  ( 11,  1, 70)

 MAXIMUM RESIDUAL FOR EACH ITERATION (1 INDICATES THE FIRST INNER ITERATION):

    RESIDUAL       RESIDUAL       RESIDUAL       RESIDUAL       RESIDUAL    
   LAYER,ROW,COL  LAYER,ROW,COL  LAYER,ROW,COL  LAYER,ROW,COL  LAYER,ROW,COL
 ---------------------------------------------------------------------------
  1 -0.1334E+06  0  0.9397E+05  0  0.9321E+05  0  0.5687E+05  0   6071.    
   ( 21,  1, 89)  ( 19,  1, 89)  ( 19,  1, 89)  ( 19,  1, 89)  ( 17,  1, 87)
  0  -2741.      0  -2586.      0  -1438.      0  -389.0      1  -333.0    
   ( 22,  1, 87)  ( 22,  1, 87)  ( 22,  1, 87)  ( 22,  1, 87)  ( 22,  1, 87)


 FLOW MODEL IS TRANSIENT
 FLOW MODEL CONTAINS CONSTANT-HEAD CELLS


 MAXIMUM STEPSIZE DURING WHICH ANY PARTICLE CANNOT MOVE MORE THAN ONE CELL
 =  13.15    (WHEN MIN. R.F.=1)  AT K=  17, I=   1, J=  90

 MAXIMUM STEPSIZE WHICH MEETS STABILITY CRITERION OF THE ADVECTION TERM
 (FOR PURE FINITE-DIFFERENCE OPTION, MIXELM=0) 
 =  7.976    (WHEN MIN. R.F.=1)  AT K=  16, I=   1, J=  90


 TOTAL NUMBER OF POINT SOURCES/SINKS PRESENT IN THE FLOW MODEL =    30

 MAXIMUM STEPSIZE WHICH MEETS STABILITY CRITERION OF THE SINK & SOURCE TERM
 =  12.09    (WHEN MIN. R.F.=1)  AT K=  17, I=   1, J=  91

 MAXIMUM STEPSIZE WHICH MEETS STABILITY CRITERION OF THE DISPERSION TERM
 =  4.331    (WHEN MIN. R.F.=1)  AT K=  17, I=   1, J=  90
     1 CALLS TO GCG PACKAGE FOR TRANSPORT TIME STEP 410 IN FLOW TIME STEP   1 STRESS PERIOD   1
     9 TOTAL ITERATIONS
  MAXIMUM CONCENTRATION CHANGES FOR EACH ITERATION:
  MAX. CHANGE LAYER,ROW,COL MAX. CHANGE LAYER,ROW,COL MAX. CHANGE LAYER,ROW,COL MAX. CHANGE LAYER,ROW,COL MAX. CHANGE LAYER,ROW,COL
 ------------------------------------------------------------------------------------------------------------------------------------
   0.4919E-01 ( 20,  1, 87)  0.3290E-02 ( 19,  1, 87)  0.2192E-02 ( 18,  1, 87)  0.2140E-03 ( 16,  1, 88)  0.1408E-03 ( 16,  1, 89)
   0.2876E-04 ( 16,  1, 90)  0.2365E-05 ( 21,  1, 78)  0.2263E-05 ( 21,  1, 78)  0.8701E-06 ( 16,  1, 89)
     1 CALLS TO GCG PACKAGE FOR TRANSPORT TIME STEP 410 IN FLOW TIME STEP   1 STRESS PERIOD   1
     8 TOTAL ITERATIONS
  MAXIMUM CONCENTRATION CHANGES FOR EACH ITERATION:
  MAX. CHANGE LAYER,ROW,COL MAX. CHANGE LAYER,ROW,COL MAX. CHANGE LAYER,ROW,COL MAX. CHANGE LAYER,ROW,COL MAX. CHANGE LAYER,ROW,COL
 ------------------------------------------------------------------------------------------------------------------------------------
   0.5650E-01 ( 20,  1, 87)  0.4336E-02 ( 19,  1, 87)  0.2287E-02 ( 18,  1, 87)  0.3302E-03 ( 18,  1, 87)  0.1394E-03 ( 17,  1, 89)
   0.3709E-04 ( 17,  1, 90)  0.5683E-05 ( 17,  1, 90)  0.5929E-06 ( 16,  1, 89)



 >>>>>>>>>>>>>>>>>>>>>>>>>>>>>>>>>>>>>>>>>>>>>>>>>>>>>>>FOR COMPONENT NO. 01<<<<<<<<<<<<<<<<<<<<<<<<<<<<<<<<<<<<<<<<<<<<<<<<<<<<<<<


                                            -------------------------------------------
                                                      TRANSPORT STEP NO.  410
                                            -------------------------------------------

 TOTAL ELAPSED TIME SINCE BEGINNING OF SIMULATION =   20500.00    D   
 .....................................................................

                     CUMMULATIVE MASS BUDGETS AT END OF TRANSPORT STEP  410, TIME STEP    1, STRESS PERIOD    1
                     ------------------------------------------------------------------------------------------

                                                             IN                           OUT
                                                      ----------------             ----------------
                               CONSTANT CONCENTRATION:    0.000000                    0.000000    
                                        CONSTANT HEAD:   0.8113654E+09              -0.8111627E+09
                                                WELLS:    0.000000                    0.000000    
                                             RECHARGE:    0.000000                    0.000000    
                               1ST/0TH ORDER REACTION:    0.000000                    0.000000    
                                MASS STORAGE (SOLUTE):   0.1134308E+09              -0.1136336E+09
                            ---------------------------------------------------------------------------
                                              [TOTAL]:   0.9247971E+09 KG           -0.9247972E+09 KG  

                                                          NET (IN - OUT):   -129.0658    
                                                   DISCREPANCY (PERCENT):  -0.1395612E-04



 >>>>>>>>>>>>>>>>>>>>>>>>>>>>>>>>>>>>>>>>>>>>>>>>>>>>>>>FOR COMPONENT NO. 02<<<<<<<<<<<<<<<<<<<<<<<<<<<<<<<<<<<<<<<<<<<<<<<<<<<<<<<


                                            -------------------------------------------
                                                      TRANSPORT STEP NO.  410
                                            -------------------------------------------

 TOTAL ELAPSED TIME SINCE BEGINNING OF SIMULATION =   20500.00    D   
 .....................................................................

                     CUMMULATIVE MASS BUDGETS AT END OF TRANSPORT STEP  410, TIME STEP    1, STRESS PERIOD    1
                     ------------------------------------------------------------------------------------------

                                                             IN                           OUT
                                                      ----------------             ----------------
                               CONSTANT CONCENTRATION:    0.000000                    0.000000    
                                        CONSTANT HEAD:    0.000000                  -0.1070002E+12
                                                WELLS:    0.000000                    0.000000    
                                             RECHARGE:    0.000000                    0.000000    
                               1ST/0TH ORDER REACTION:   0.3392750E+12                0.000000    
                                MASS STORAGE (SOLUTE):   0.3119684E+11              -0.2634717E+12
                            ---------------------------------------------------------------------------
                                              [TOTAL]:   0.3704723E+12 KG           -0.3704724E+12 KG  

                                                          NET (IN - OUT):   -33050.50    
                                                   DISCREPANCY (PERCENT):  -0.8921180E-05
 
 SOLVING FOR HEAD 


     2 CALLS TO PCG ROUTINE FOR TIME STEP   1 IN STRESS PERIOD    1
     8 TOTAL ITERATIONS

 MAXIMUM HEAD CHANGE FOR EACH ITERATION (1 INDICATES THE FIRST INNER ITERATION):

    HEAD CHANGE    HEAD CHANGE    HEAD CHANGE    HEAD CHANGE    HEAD CHANGE 
   LAYER,ROW,COL  LAYER,ROW,COL  LAYER,ROW,COL  LAYER,ROW,COL  LAYER,ROW,COL
 ---------------------------------------------------------------------------
  1  0.1358E-01  0 -0.3879E-02  0 -0.2357E-02  0 -0.6256E-02  0  0.7821E-02
   ( 15,  1, 86)  ( 17,  1, 89)  (  8,  1, 12)  ( 11,  1, 51)  ( 11,  1, 51)
  0 -0.1645E-02  0 -0.7726E-03  1  0.5947E-03
   ( 11,  1, 52)  ( 11,  1, 49)  ( 11,  1, 49)

 MAXIMUM RESIDUAL FOR EACH ITERATION (1 INDICATES THE FIRST INNER ITERATION):

    RESIDUAL       RESIDUAL       RESIDUAL       RESIDUAL       RESIDUAL    
   LAYER,ROW,COL  LAYER,ROW,COL  LAYER,ROW,COL  LAYER,ROW,COL  LAYER,ROW,COL
 ---------------------------------------------------------------------------
  1  0.1319E+06  0 -0.9300E+05  0 -0.9154E+05  0 -0.1573E+05  0   4486.    
   ( 21,  1, 89)  ( 19,  1, 89)  ( 19,  1, 89)  ( 19,  1, 89)  ( 17,  1, 88)
  0   2809.      0   2275.      1   1994.    
   ( 22,  1, 87)  ( 22,  1, 87)  ( 22,  1, 87)


 FLOW MODEL IS TRANSIENT
 FLOW MODEL CONTAINS CONSTANT-HEAD CELLS


 MAXIMUM STEPSIZE DURING WHICH ANY PARTICLE CANNOT MOVE MORE THAN ONE CELL
 =  12.82    (WHEN MIN. R.F.=1)  AT K=  17, I=   1, J=  90

 MAXIMUM STEPSIZE WHICH MEETS STABILITY CRITERION OF THE ADVECTION TERM
 (FOR PURE FINITE-DIFFERENCE OPTION, MIXELM=0) 
 =  8.019    (WHEN MIN. R.F.=1)  AT K=  16, I=   1, J=  90


 TOTAL NUMBER OF POINT SOURCES/SINKS PRESENT IN THE FLOW MODEL =    30

 MAXIMUM STEPSIZE WHICH MEETS STABILITY CRITERION OF THE SINK & SOURCE TERM
 =  12.16    (WHEN MIN. R.F.=1)  AT K=  17, I=   1, J=  91

 MAXIMUM STEPSIZE WHICH MEETS STABILITY CRITERION OF THE DISPERSION TERM
 =  4.017    (WHEN MIN. R.F.=1)  AT K=  17, I=   1, J=  90
     1 CALLS TO GCG PACKAGE FOR TRANSPORT TIME STEP 411 IN FLOW TIME STEP   1 STRESS PERIOD   1
     8 TOTAL ITERATIONS
     1 CALLS TO GCG PACKAGE FOR TRANSPORT TIME STEP 411 IN FLOW TIME STEP   1 STRESS PERIOD   1
     8 TOTAL ITERATIONS
 
 SOLVING FOR HEAD 


     2 CALLS TO PCG ROUTINE FOR TIME STEP   1 IN STRESS PERIOD    1
     9 TOTAL ITERATIONS

 MAXIMUM HEAD CHANGE FOR EACH ITERATION (1 INDICATES THE FIRST INNER ITERATION):

    HEAD CHANGE    HEAD CHANGE    HEAD CHANGE    HEAD CHANGE    HEAD CHANGE 
   LAYER,ROW,COL  LAYER,ROW,COL  LAYER,ROW,COL  LAYER,ROW,COL  LAYER,ROW,COL
 ---------------------------------------------------------------------------
  1 -0.1361E-01  0 -0.4590E-02  0  0.3692E-02  0  0.9719E-02  0 -0.8260E-02
   ( 15,  1, 86)  (  7,  1, 51)  (  7,  1, 12)  (  8,  1, 52)  (  9,  1, 52)
  0  0.3234E-02  0 -0.1173E-02  0  0.5452E-03  1 -0.5768E-03
   ( 11,  1, 63)  ( 11,  1, 63)  ( 11,  1, 49)  ( 11,  1, 70)

 MAXIMUM RESIDUAL FOR EACH ITERATION (1 INDICATES THE FIRST INNER ITERATION):

    RESIDUAL       RESIDUAL       RESIDUAL       RESIDUAL       RESIDUAL    
   LAYER,ROW,COL  LAYER,ROW,COL  LAYER,ROW,COL  LAYER,ROW,COL  LAYER,ROW,COL
 ---------------------------------------------------------------------------
  1 -0.1308E+06  0  0.9170E+05  0  0.9092E+05  0  0.5957E+05  0   6097.    
   ( 21,  1, 89)  ( 19,  1, 89)  ( 19,  1, 89)  ( 19,  1, 89)  ( 17,  1, 87)
  0  -2763.      0  -2569.      0  -742.1      1  -636.5    
   ( 22,  1, 87)  ( 22,  1, 87)  ( 22,  1, 87)  ( 22,  1, 87)


 FLOW MODEL IS TRANSIENT
 FLOW MODEL CONTAINS CONSTANT-HEAD CELLS


 MAXIMUM STEPSIZE DURING WHICH ANY PARTICLE CANNOT MOVE MORE THAN ONE CELL
 =  13.15    (WHEN MIN. R.F.=1)  AT K=  17, I=   1, J=  90

 MAXIMUM STEPSIZE WHICH MEETS STABILITY CRITERION OF THE ADVECTION TERM
 (FOR PURE FINITE-DIFFERENCE OPTION, MIXELM=0) 
 =  7.977    (WHEN MIN. R.F.=1)  AT K=  16, I=   1, J=  90


 TOTAL NUMBER OF POINT SOURCES/SINKS PRESENT IN THE FLOW MODEL =    30

 MAXIMUM STEPSIZE WHICH MEETS STABILITY CRITERION OF THE SINK & SOURCE TERM
 =  12.10    (WHEN MIN. R.F.=1)  AT K=  17, I=   1, J=  91

 MAXIMUM STEPSIZE WHICH MEETS STABILITY CRITERION OF THE DISPERSION TERM
 =  4.337    (WHEN MIN. R.F.=1)  AT K=  17, I=   1, J=  90
     1 CALLS TO GCG PACKAGE FOR TRANSPORT TIME STEP 412 IN FLOW TIME STEP   1 STRESS PERIOD   1
    10 TOTAL ITERATIONS
     1 CALLS TO GCG PACKAGE FOR TRANSPORT TIME STEP 412 IN FLOW TIME STEP   1 STRESS PERIOD   1
     8 TOTAL ITERATIONS
 
 SOLVING FOR HEAD 


     2 CALLS TO PCG ROUTINE FOR TIME STEP   1 IN STRESS PERIOD    1
     9 TOTAL ITERATIONS

 MAXIMUM HEAD CHANGE FOR EACH ITERATION (1 INDICATES THE FIRST INNER ITERATION):

    HEAD CHANGE    HEAD CHANGE    HEAD CHANGE    HEAD CHANGE    HEAD CHANGE 
   LAYER,ROW,COL  LAYER,ROW,COL  LAYER,ROW,COL  LAYER,ROW,COL  LAYER,ROW,COL
 ---------------------------------------------------------------------------
  1  0.1359E-01  0 -0.3976E-02  0 -0.2687E-02  0  0.1092E-01  0 -0.1138E-01
   ( 15,  1, 86)  ( 17,  1, 89)  (  8,  1, 12)  ( 11,  1, 49)  ( 11,  1, 49)
  0  0.2332E-02  0 -0.1152E-02  0 -0.6385E-03  1  0.6122E-03
   ( 11,  1, 52)  ( 11,  1, 54)  ( 11,  1, 70)  ( 11,  1, 66)

 MAXIMUM RESIDUAL FOR EACH ITERATION (1 INDICATES THE FIRST INNER ITERATION):

    RESIDUAL       RESIDUAL       RESIDUAL       RESIDUAL       RESIDUAL    
   LAYER,ROW,COL  LAYER,ROW,COL  LAYER,ROW,COL  LAYER,ROW,COL  LAYER,ROW,COL
 ---------------------------------------------------------------------------
  1  0.1315E+06  0 -0.9279E+05  0 -0.9170E+05  0 -0.2225E+05  0  -4969.    
   ( 21,  1, 89)  ( 19,  1, 89)  ( 19,  1, 89)  ( 19,  1, 89)  ( 17,  1, 87)
  0   2781.      0   2380.      0   715.2      1   614.5    
   ( 22,  1, 87)  ( 22,  1, 87)  ( 22,  1, 87)  ( 22,  1, 87)


 FLOW MODEL IS TRANSIENT
 FLOW MODEL CONTAINS CONSTANT-HEAD CELLS


 MAXIMUM STEPSIZE DURING WHICH ANY PARTICLE CANNOT MOVE MORE THAN ONE CELL
 =  12.84    (WHEN MIN. R.F.=1)  AT K=  17, I=   1, J=  90

 MAXIMUM STEPSIZE WHICH MEETS STABILITY CRITERION OF THE ADVECTION TERM
 (FOR PURE FINITE-DIFFERENCE OPTION, MIXELM=0) 
 =  8.026    (WHEN MIN. R.F.=1)  AT K=  16, I=   1, J=  90


 TOTAL NUMBER OF POINT SOURCES/SINKS PRESENT IN THE FLOW MODEL =    30

 MAXIMUM STEPSIZE WHICH MEETS STABILITY CRITERION OF THE SINK & SOURCE TERM
 =  12.18    (WHEN MIN. R.F.=1)  AT K=  17, I=   1, J=  91

 MAXIMUM STEPSIZE WHICH MEETS STABILITY CRITERION OF THE DISPERSION TERM
 =  4.022    (WHEN MIN. R.F.=1)  AT K=  17, I=   1, J=  90
     1 CALLS TO GCG PACKAGE FOR TRANSPORT TIME STEP 413 IN FLOW TIME STEP   1 STRESS PERIOD   1
     8 TOTAL ITERATIONS
     1 CALLS TO GCG PACKAGE FOR TRANSPORT TIME STEP 413 IN FLOW TIME STEP   1 STRESS PERIOD   1
     8 TOTAL ITERATIONS
 
 SOLVING FOR HEAD 


     2 CALLS TO PCG ROUTINE FOR TIME STEP   1 IN STRESS PERIOD    1
    11 TOTAL ITERATIONS

 MAXIMUM HEAD CHANGE FOR EACH ITERATION (1 INDICATES THE FIRST INNER ITERATION):

    HEAD CHANGE    HEAD CHANGE    HEAD CHANGE    HEAD CHANGE    HEAD CHANGE 
   LAYER,ROW,COL  LAYER,ROW,COL  LAYER,ROW,COL  LAYER,ROW,COL  LAYER,ROW,COL
 ---------------------------------------------------------------------------
  1 -0.1328E-01  0  0.3559E-02  0  0.2343E-02  0  0.9247E-02  0 -0.9062E-02
   ( 15,  1, 86)  ( 17,  1, 89)  (  8,  1, 12)  ( 11,  1, 57)  ( 11,  1, 57)
  0 -0.1845E-02  0  0.1107E-02  0  0.1198E-02  0 -0.1109E-02  0 -0.1938E-03
   ( 11,  1, 70)  ( 11,  1, 58)  ( 11,  1, 70)  ( 11,  1, 70)  ( 11,  1, 51)
  1  0.1736E-03
   ( 11,  1, 70)

 MAXIMUM RESIDUAL FOR EACH ITERATION (1 INDICATES THE FIRST INNER ITERATION):

    RESIDUAL       RESIDUAL       RESIDUAL       RESIDUAL       RESIDUAL    
   LAYER,ROW,COL  LAYER,ROW,COL  LAYER,ROW,COL  LAYER,ROW,COL  LAYER,ROW,COL
 ---------------------------------------------------------------------------
  1 -0.1291E+06  0  0.9044E+05  0  0.8879E+05  0  0.2758E+05  0   5790.    
   ( 21,  1, 89)  ( 19,  1, 89)  ( 19,  1, 89)  ( 19,  1, 89)  ( 17,  1, 87)
  0  -2829.      0  -2575.      0  -875.8      0  -373.2      0   273.1    
   ( 22,  1, 87)  ( 22,  1, 87)  ( 22,  1, 87)  ( 22,  1, 87)  ( 18,  1, 90)
  1  -215.0    
   ( 22,  1, 87)


 FLOW MODEL IS TRANSIENT
 FLOW MODEL CONTAINS CONSTANT-HEAD CELLS


 MAXIMUM STEPSIZE DURING WHICH ANY PARTICLE CANNOT MOVE MORE THAN ONE CELL
 =  13.21    (WHEN MIN. R.F.=1)  AT K=  17, I=   1, J=  90

 MAXIMUM STEPSIZE WHICH MEETS STABILITY CRITERION OF THE ADVECTION TERM
 (FOR PURE FINITE-DIFFERENCE OPTION, MIXELM=0) 
 =  8.001    (WHEN MIN. R.F.=1)  AT K=  16, I=   1, J=  90


 TOTAL NUMBER OF POINT SOURCES/SINKS PRESENT IN THE FLOW MODEL =    30

 MAXIMUM STEPSIZE WHICH MEETS STABILITY CRITERION OF THE SINK & SOURCE TERM
 =  12.17    (WHEN MIN. R.F.=1)  AT K=  17, I=   1, J=  91

 MAXIMUM STEPSIZE WHICH MEETS STABILITY CRITERION OF THE DISPERSION TERM
 =  4.359    (WHEN MIN. R.F.=1)  AT K=  17, I=   1, J=  90
     1 CALLS TO GCG PACKAGE FOR TRANSPORT TIME STEP 414 IN FLOW TIME STEP   1 STRESS PERIOD   1
     7 TOTAL ITERATIONS
     1 CALLS TO GCG PACKAGE FOR TRANSPORT TIME STEP 414 IN FLOW TIME STEP   1 STRESS PERIOD   1
     8 TOTAL ITERATIONS
 
 SOLVING FOR HEAD 


     2 CALLS TO PCG ROUTINE FOR TIME STEP   1 IN STRESS PERIOD    1
     8 TOTAL ITERATIONS

 MAXIMUM HEAD CHANGE FOR EACH ITERATION (1 INDICATES THE FIRST INNER ITERATION):

    HEAD CHANGE    HEAD CHANGE    HEAD CHANGE    HEAD CHANGE    HEAD CHANGE 
   LAYER,ROW,COL  LAYER,ROW,COL  LAYER,ROW,COL  LAYER,ROW,COL  LAYER,ROW,COL
 ---------------------------------------------------------------------------
  1  0.1337E-01  0 -0.3538E-02  0 -0.3544E-02  0 -0.5064E-02  0  0.7591E-02
   ( 15,  1, 86)  ( 17,  1, 89)  (  7,  1, 12)  ( 11,  1, 51)  ( 11,  1, 51)
  0 -0.1825E-02  0 -0.8615E-03  1  0.6937E-03
   ( 11,  1, 51)  ( 11,  1, 70)  ( 11,  1, 49)

 MAXIMUM RESIDUAL FOR EACH ITERATION (1 INDICATES THE FIRST INNER ITERATION):

    RESIDUAL       RESIDUAL       RESIDUAL       RESIDUAL       RESIDUAL    
   LAYER,ROW,COL  LAYER,ROW,COL  LAYER,ROW,COL  LAYER,ROW,COL  LAYER,ROW,COL
 ---------------------------------------------------------------------------
  1  0.1302E+06  0 -0.9008E+05  0 -0.8193E+05  0 -0.1402E+05  0  -4438.    
   ( 21,  1, 89)  ( 19,  1, 89)  ( 19,  1, 89)  ( 19,  1, 89)  ( 17,  1, 87)
  0   2899.      0   1982.      1   1763.    
   ( 22,  1, 87)  ( 22,  1, 87)  ( 22,  1, 87)


 FLOW MODEL IS TRANSIENT
 FLOW MODEL CONTAINS CONSTANT-HEAD CELLS


 MAXIMUM STEPSIZE DURING WHICH ANY PARTICLE CANNOT MOVE MORE THAN ONE CELL
 =  12.85    (WHEN MIN. R.F.=1)  AT K=  17, I=   1, J=  90

 MAXIMUM STEPSIZE WHICH MEETS STABILITY CRITERION OF THE ADVECTION TERM
 (FOR PURE FINITE-DIFFERENCE OPTION, MIXELM=0) 
 =  8.026    (WHEN MIN. R.F.=1)  AT K=  16, I=   1, J=  90


 TOTAL NUMBER OF POINT SOURCES/SINKS PRESENT IN THE FLOW MODEL =    30

 MAXIMUM STEPSIZE WHICH MEETS STABILITY CRITERION OF THE SINK & SOURCE TERM
 =  12.20    (WHEN MIN. R.F.=1)  AT K=  17, I=   1, J=  91

 MAXIMUM STEPSIZE WHICH MEETS STABILITY CRITERION OF THE DISPERSION TERM
 =  4.031    (WHEN MIN. R.F.=1)  AT K=  17, I=   1, J=  90
     1 CALLS TO GCG PACKAGE FOR TRANSPORT TIME STEP 415 IN FLOW TIME STEP   1 STRESS PERIOD   1
     8 TOTAL ITERATIONS
  MAXIMUM CONCENTRATION CHANGES FOR EACH ITERATION:
  MAX. CHANGE LAYER,ROW,COL MAX. CHANGE LAYER,ROW,COL MAX. CHANGE LAYER,ROW,COL MAX. CHANGE LAYER,ROW,COL MAX. CHANGE LAYER,ROW,COL
 ------------------------------------------------------------------------------------------------------------------------------------
   0.5241E-01 ( 20,  1, 87)  0.4107E-02 ( 19,  1, 89)  0.2156E-02 ( 18,  1, 86)  0.4694E-03 ( 20,  1, 89)  0.9646E-04 ( 16,  1, 89)
   0.1966E-04 ( 20,  1, 89)  0.1668E-04 ( 16,  1, 90)  0.7036E-06 ( 17,  1, 90)
     1 CALLS TO GCG PACKAGE FOR TRANSPORT TIME STEP 415 IN FLOW TIME STEP   1 STRESS PERIOD   1
     8 TOTAL ITERATIONS
  MAXIMUM CONCENTRATION CHANGES FOR EACH ITERATION:
  MAX. CHANGE LAYER,ROW,COL MAX. CHANGE LAYER,ROW,COL MAX. CHANGE LAYER,ROW,COL MAX. CHANGE LAYER,ROW,COL MAX. CHANGE LAYER,ROW,COL
 ------------------------------------------------------------------------------------------------------------------------------------
   0.6094E-01 ( 20,  1, 87)  0.4776E-02 ( 19,  1, 89)  0.2101E-02 ( 18,  1, 86)  0.4583E-03 ( 23,  1, 87)  0.1120E-03 ( 16,  1, 89)
   0.2347E-04 ( 23,  1, 87)  0.1413E-04 ( 17,  1, 90)  0.8936E-06 ( 17,  1, 90)
 
 SOLVING FOR HEAD 


     2 CALLS TO PCG ROUTINE FOR TIME STEP   1 IN STRESS PERIOD    1
     9 TOTAL ITERATIONS

 MAXIMUM HEAD CHANGE FOR EACH ITERATION (1 INDICATES THE FIRST INNER ITERATION):

    HEAD CHANGE    HEAD CHANGE    HEAD CHANGE    HEAD CHANGE    HEAD CHANGE 
   LAYER,ROW,COL  LAYER,ROW,COL  LAYER,ROW,COL  LAYER,ROW,COL  LAYER,ROW,COL
 ---------------------------------------------------------------------------
  1 -0.1357E-01  0  0.3805E-02  0  0.2780E-02  0  0.1023E-01  0 -0.9250E-02
   ( 15,  1, 86)  ( 17,  1, 89)  (  7,  1, 12)  (  7,  1, 51)  (  7,  1, 51)
  0 -0.1898E-02  0  0.1131E-02  0  0.9500E-03  1 -0.9204E-03
   ( 11,  1, 55)  ( 11,  1, 56)  ( 11,  1, 70)  ( 11,  1, 69)

 MAXIMUM RESIDUAL FOR EACH ITERATION (1 INDICATES THE FIRST INNER ITERATION):

    RESIDUAL       RESIDUAL       RESIDUAL       RESIDUAL       RESIDUAL    
   LAYER,ROW,COL  LAYER,ROW,COL  LAYER,ROW,COL  LAYER,ROW,COL  LAYER,ROW,COL
 ---------------------------------------------------------------------------
  1 -0.1332E+06  0  0.9430E+05  0  0.9320E+05  0  0.5005E+05  0   5956.    
   ( 21,  1, 89)  ( 19,  1, 89)  ( 19,  1, 89)  ( 19,  1, 89)  ( 17,  1, 87)
  0  -2801.      0  -2544.      0  -873.1      1  -730.1    
   ( 22,  1, 87)  ( 22,  1, 87)  ( 22,  1, 87)  ( 22,  1, 87)


 FLOW MODEL IS TRANSIENT
 FLOW MODEL CONTAINS CONSTANT-HEAD CELLS


 MAXIMUM STEPSIZE DURING WHICH ANY PARTICLE CANNOT MOVE MORE THAN ONE CELL
 =  13.14    (WHEN MIN. R.F.=1)  AT K=  17, I=   1, J=  90

 MAXIMUM STEPSIZE WHICH MEETS STABILITY CRITERION OF THE ADVECTION TERM
 (FOR PURE FINITE-DIFFERENCE OPTION, MIXELM=0) 
 =  7.976    (WHEN MIN. R.F.=1)  AT K=  16, I=   1, J=  90


 TOTAL NUMBER OF POINT SOURCES/SINKS PRESENT IN THE FLOW MODEL =    30

 MAXIMUM STEPSIZE WHICH MEETS STABILITY CRITERION OF THE SINK & SOURCE TERM
 =  12.10    (WHEN MIN. R.F.=1)  AT K=  17, I=   1, J=  91

 MAXIMUM STEPSIZE WHICH MEETS STABILITY CRITERION OF THE DISPERSION TERM
 =  4.326    (WHEN MIN. R.F.=1)  AT K=  17, I=   1, J=  90
     1 CALLS TO GCG PACKAGE FOR TRANSPORT TIME STEP 416 IN FLOW TIME STEP   1 STRESS PERIOD   1
     9 TOTAL ITERATIONS
     1 CALLS TO GCG PACKAGE FOR TRANSPORT TIME STEP 416 IN FLOW TIME STEP   1 STRESS PERIOD   1
     8 TOTAL ITERATIONS
 
 SOLVING FOR HEAD 


     2 CALLS TO PCG ROUTINE FOR TIME STEP   1 IN STRESS PERIOD    1
     8 TOTAL ITERATIONS

 MAXIMUM HEAD CHANGE FOR EACH ITERATION (1 INDICATES THE FIRST INNER ITERATION):

    HEAD CHANGE    HEAD CHANGE    HEAD CHANGE    HEAD CHANGE    HEAD CHANGE 
   LAYER,ROW,COL  LAYER,ROW,COL  LAYER,ROW,COL  LAYER,ROW,COL  LAYER,ROW,COL
 ---------------------------------------------------------------------------
  1  0.1368E-01  0 -0.3864E-02  0 -0.2902E-02  0 -0.1100E-01  0  0.1230E-01
   ( 15,  1, 86)  ( 17,  1, 89)  (  8,  1, 12)  ( 11,  1, 60)  ( 11,  1, 60)
  0 -0.2043E-02  0  0.7626E-03  1 -0.8190E-03
   ( 11,  1, 59)  ( 11,  1, 55)  ( 11,  1, 55)

 MAXIMUM RESIDUAL FOR EACH ITERATION (1 INDICATES THE FIRST INNER ITERATION):

    RESIDUAL       RESIDUAL       RESIDUAL       RESIDUAL       RESIDUAL    
   LAYER,ROW,COL  LAYER,ROW,COL  LAYER,ROW,COL  LAYER,ROW,COL  LAYER,ROW,COL
 ---------------------------------------------------------------------------
  1  0.1312E+06  0 -0.9266E+05  0 -0.9166E+05  0 -0.2168E+05  0  -4720.    
   ( 21,  1, 89)  ( 19,  1, 89)  ( 19,  1, 89)  ( 19,  1, 89)  ( 17,  1, 87)
  0   2824.      0   2152.      1   1881.    
   ( 22,  1, 87)  ( 22,  1, 87)  ( 22,  1, 87)


 FLOW MODEL IS TRANSIENT
 FLOW MODEL CONTAINS CONSTANT-HEAD CELLS


 MAXIMUM STEPSIZE DURING WHICH ANY PARTICLE CANNOT MOVE MORE THAN ONE CELL
 =  12.84    (WHEN MIN. R.F.=1)  AT K=  17, I=   1, J=  90

 MAXIMUM STEPSIZE WHICH MEETS STABILITY CRITERION OF THE ADVECTION TERM
 (FOR PURE FINITE-DIFFERENCE OPTION, MIXELM=0) 
 =  8.024    (WHEN MIN. R.F.=1)  AT K=  16, I=   1, J=  90


 TOTAL NUMBER OF POINT SOURCES/SINKS PRESENT IN THE FLOW MODEL =    30

 MAXIMUM STEPSIZE WHICH MEETS STABILITY CRITERION OF THE SINK & SOURCE TERM
 =  12.18    (WHEN MIN. R.F.=1)  AT K=  17, I=   1, J=  91

 MAXIMUM STEPSIZE WHICH MEETS STABILITY CRITERION OF THE DISPERSION TERM
 =  4.022    (WHEN MIN. R.F.=1)  AT K=  17, I=   1, J=  90
     1 CALLS TO GCG PACKAGE FOR TRANSPORT TIME STEP 417 IN FLOW TIME STEP   1 STRESS PERIOD   1
     8 TOTAL ITERATIONS
     1 CALLS TO GCG PACKAGE FOR TRANSPORT TIME STEP 417 IN FLOW TIME STEP   1 STRESS PERIOD   1
     8 TOTAL ITERATIONS
 
 SOLVING FOR HEAD 


     2 CALLS TO PCG ROUTINE FOR TIME STEP   1 IN STRESS PERIOD    1
     9 TOTAL ITERATIONS

 MAXIMUM HEAD CHANGE FOR EACH ITERATION (1 INDICATES THE FIRST INNER ITERATION):

    HEAD CHANGE    HEAD CHANGE    HEAD CHANGE    HEAD CHANGE    HEAD CHANGE 
   LAYER,ROW,COL  LAYER,ROW,COL  LAYER,ROW,COL  LAYER,ROW,COL  LAYER,ROW,COL
 ---------------------------------------------------------------------------
  1 -0.1361E-01  0 -0.4519E-02  0  0.3522E-02  0  0.1636E-01  0 -0.1613E-01
   ( 15,  1, 86)  ( 11,  1, 55)  (  8,  1, 12)  ( 11,  1, 55)  ( 11,  1, 55)
  0  0.1620E-02  0 -0.1087E-02  0  0.5547E-03  1 -0.3505E-03
   ( 11,  1, 57)  ( 11,  1, 49)  ( 11,  1, 49)  ( 11,  1, 38)

 MAXIMUM RESIDUAL FOR EACH ITERATION (1 INDICATES THE FIRST INNER ITERATION):

    RESIDUAL       RESIDUAL       RESIDUAL       RESIDUAL       RESIDUAL    
   LAYER,ROW,COL  LAYER,ROW,COL  LAYER,ROW,COL  LAYER,ROW,COL  LAYER,ROW,COL
 ---------------------------------------------------------------------------
  1 -0.1306E+06  0  0.9163E+05  0  0.9082E+05  0  0.3529E+05  0   5168.    
   ( 21,  1, 89)  ( 19,  1, 89)  ( 19,  1, 89)  ( 19,  1, 89)  ( 17,  1, 87)
  0  -2809.      0  -2566.      0  -883.7      1  -790.1    
   ( 22,  1, 87)  ( 22,  1, 87)  ( 22,  1, 87)  ( 22,  1, 87)


 FLOW MODEL IS TRANSIENT
 FLOW MODEL CONTAINS CONSTANT-HEAD CELLS


 MAXIMUM STEPSIZE DURING WHICH ANY PARTICLE CANNOT MOVE MORE THAN ONE CELL
 =  13.17    (WHEN MIN. R.F.=1)  AT K=  17, I=   1, J=  90

 MAXIMUM STEPSIZE WHICH MEETS STABILITY CRITERION OF THE ADVECTION TERM
 (FOR PURE FINITE-DIFFERENCE OPTION, MIXELM=0) 
 =  7.982    (WHEN MIN. R.F.=1)  AT K=  16, I=   1, J=  90


 TOTAL NUMBER OF POINT SOURCES/SINKS PRESENT IN THE FLOW MODEL =    30

 MAXIMUM STEPSIZE WHICH MEETS STABILITY CRITERION OF THE SINK & SOURCE TERM
 =  12.12    (WHEN MIN. R.F.=1)  AT K=  17, I=   1, J=  91

 MAXIMUM STEPSIZE WHICH MEETS STABILITY CRITERION OF THE DISPERSION TERM
 =  4.342    (WHEN MIN. R.F.=1)  AT K=  17, I=   1, J=  90
     1 CALLS TO GCG PACKAGE FOR TRANSPORT TIME STEP 418 IN FLOW TIME STEP   1 STRESS PERIOD   1
     9 TOTAL ITERATIONS
     1 CALLS TO GCG PACKAGE FOR TRANSPORT TIME STEP 418 IN FLOW TIME STEP   1 STRESS PERIOD   1
     8 TOTAL ITERATIONS
 
 SOLVING FOR HEAD 


     2 CALLS TO PCG ROUTINE FOR TIME STEP   1 IN STRESS PERIOD    1
     9 TOTAL ITERATIONS

 MAXIMUM HEAD CHANGE FOR EACH ITERATION (1 INDICATES THE FIRST INNER ITERATION):

    HEAD CHANGE    HEAD CHANGE    HEAD CHANGE    HEAD CHANGE    HEAD CHANGE 
   LAYER,ROW,COL  LAYER,ROW,COL  LAYER,ROW,COL  LAYER,ROW,COL  LAYER,ROW,COL
 ---------------------------------------------------------------------------
  1  0.1356E-01  0 -0.3954E-02  0 -0.2769E-02  0 -0.8564E-02  0  0.8628E-02
   ( 15,  1, 86)  ( 17,  1, 89)  (  8,  1, 12)  (  9,  1, 50)  (  9,  1, 50)
  0 -0.1123E-02  0 -0.1192E-02  0 -0.8219E-03  1  0.9599E-03
   ( 11,  1, 68)  ( 11,  1, 58)  ( 11,  1, 70)  ( 11,  1, 70)

 MAXIMUM RESIDUAL FOR EACH ITERATION (1 INDICATES THE FIRST INNER ITERATION):

    RESIDUAL       RESIDUAL       RESIDUAL       RESIDUAL       RESIDUAL    
   LAYER,ROW,COL  LAYER,ROW,COL  LAYER,ROW,COL  LAYER,ROW,COL  LAYER,ROW,COL
 ---------------------------------------------------------------------------
  1  0.1322E+06  0 -0.9358E+05  0 -0.9251E+05  0 -0.3321E+05  0  -5827.    
   ( 21,  1, 89)  ( 19,  1, 89)  ( 19,  1, 89)  ( 19,  1, 89)  ( 17,  1, 87)
  0   2810.      0   2291.      0   811.5      1   670.4    
   ( 22,  1, 87)  ( 22,  1, 87)  ( 22,  1, 87)  ( 22,  1, 87)


 FLOW MODEL IS TRANSIENT
 FLOW MODEL CONTAINS CONSTANT-HEAD CELLS


 MAXIMUM STEPSIZE DURING WHICH ANY PARTICLE CANNOT MOVE MORE THAN ONE CELL
 =  12.85    (WHEN MIN. R.F.=1)  AT K=  17, I=   1, J=  90

 MAXIMUM STEPSIZE WHICH MEETS STABILITY CRITERION OF THE ADVECTION TERM
 (FOR PURE FINITE-DIFFERENCE OPTION, MIXELM=0) 
 =  8.030    (WHEN MIN. R.F.=1)  AT K=  16, I=   1, J=  90


 TOTAL NUMBER OF POINT SOURCES/SINKS PRESENT IN THE FLOW MODEL =    30

 MAXIMUM STEPSIZE WHICH MEETS STABILITY CRITERION OF THE SINK & SOURCE TERM
 =  12.19    (WHEN MIN. R.F.=1)  AT K=  17, I=   1, J=  91

 MAXIMUM STEPSIZE WHICH MEETS STABILITY CRITERION OF THE DISPERSION TERM
 =  4.026    (WHEN MIN. R.F.=1)  AT K=  17, I=   1, J=  90
     1 CALLS TO GCG PACKAGE FOR TRANSPORT TIME STEP 419 IN FLOW TIME STEP   1 STRESS PERIOD   1
     8 TOTAL ITERATIONS
     1 CALLS TO GCG PACKAGE FOR TRANSPORT TIME STEP 419 IN FLOW TIME STEP   1 STRESS PERIOD   1
     8 TOTAL ITERATIONS
 
 SOLVING FOR HEAD 


     2 CALLS TO PCG ROUTINE FOR TIME STEP   1 IN STRESS PERIOD    1
     8 TOTAL ITERATIONS

 MAXIMUM HEAD CHANGE FOR EACH ITERATION (1 INDICATES THE FIRST INNER ITERATION):

    HEAD CHANGE    HEAD CHANGE    HEAD CHANGE    HEAD CHANGE    HEAD CHANGE 
   LAYER,ROW,COL  LAYER,ROW,COL  LAYER,ROW,COL  LAYER,ROW,COL  LAYER,ROW,COL
 ---------------------------------------------------------------------------
  1 -0.1340E-01  0  0.3627E-02  0  0.2386E-02  0  0.1180E-01  0 -0.1248E-01
   ( 15,  1, 86)  ( 17,  1, 89)  (  8,  1, 12)  ( 11,  1, 54)  ( 11,  1, 54)
  0 -0.1569E-02  0  0.9415E-03  1  0.6729E-03
   ( 11,  1, 66)  ( 11,  1, 65)  ( 11,  1, 49)

 MAXIMUM RESIDUAL FOR EACH ITERATION (1 INDICATES THE FIRST INNER ITERATION):

    RESIDUAL       RESIDUAL       RESIDUAL       RESIDUAL       RESIDUAL    
   LAYER,ROW,COL  LAYER,ROW,COL  LAYER,ROW,COL  LAYER,ROW,COL  LAYER,ROW,COL
 ---------------------------------------------------------------------------
  1 -0.1297E+06  0  0.9065E+05  0  0.8930E+05  0  0.2570E+05  0   5490.    
   ( 21,  1, 89)  ( 19,  1, 89)  ( 19,  1, 89)  ( 19,  1, 89)  ( 17,  1, 87)
  0  -2854.      0  -2329.      1  -2038.    
   ( 22,  1, 87)  ( 22,  1, 87)  ( 22,  1, 87)


 FLOW MODEL IS TRANSIENT
 FLOW MODEL CONTAINS CONSTANT-HEAD CELLS


 MAXIMUM STEPSIZE DURING WHICH ANY PARTICLE CANNOT MOVE MORE THAN ONE CELL
 =  13.23    (WHEN MIN. R.F.=1)  AT K=  17, I=   1, J=  90

 MAXIMUM STEPSIZE WHICH MEETS STABILITY CRITERION OF THE ADVECTION TERM
 (FOR PURE FINITE-DIFFERENCE OPTION, MIXELM=0) 
 =  8.009    (WHEN MIN. R.F.=1)  AT K=  16, I=   1, J=  90


 TOTAL NUMBER OF POINT SOURCES/SINKS PRESENT IN THE FLOW MODEL =    30

 MAXIMUM STEPSIZE WHICH MEETS STABILITY CRITERION OF THE SINK & SOURCE TERM
 =  12.18    (WHEN MIN. R.F.=1)  AT K=  17, I=   1, J=  91

 MAXIMUM STEPSIZE WHICH MEETS STABILITY CRITERION OF THE DISPERSION TERM
 =  4.367    (WHEN MIN. R.F.=1)  AT K=  17, I=   1, J=  90
     1 CALLS TO GCG PACKAGE FOR TRANSPORT TIME STEP 420 IN FLOW TIME STEP   1 STRESS PERIOD   1
    10 TOTAL ITERATIONS
  MAXIMUM CONCENTRATION CHANGES FOR EACH ITERATION:
  MAX. CHANGE LAYER,ROW,COL MAX. CHANGE LAYER,ROW,COL MAX. CHANGE LAYER,ROW,COL MAX. CHANGE LAYER,ROW,COL MAX. CHANGE LAYER,ROW,COL
 ------------------------------------------------------------------------------------------------------------------------------------
   0.4899E-01 ( 20,  1, 87)  0.3320E-02 ( 19,  1, 87)  0.2186E-02 ( 18,  1, 87)  0.2165E-03 ( 16,  1, 88)  0.1464E-03 ( 16,  1, 89)
   0.2750E-04 ( 16,  1, 90)  0.3477E-05 ( 21,  1, 78)  0.4600E-05 ( 16,  1, 89)  0.6900E-05 ( 16,  1, 89)  0.9298E-07 ( 17,  1, 89)
     1 CALLS TO GCG PACKAGE FOR TRANSPORT TIME STEP 420 IN FLOW TIME STEP   1 STRESS PERIOD   1
     8 TOTAL ITERATIONS
  MAXIMUM CONCENTRATION CHANGES FOR EACH ITERATION:
  MAX. CHANGE LAYER,ROW,COL MAX. CHANGE LAYER,ROW,COL MAX. CHANGE LAYER,ROW,COL MAX. CHANGE LAYER,ROW,COL MAX. CHANGE LAYER,ROW,COL
 ------------------------------------------------------------------------------------------------------------------------------------
   0.5623E-01 ( 20,  1, 87)  0.4323E-02 ( 19,  1, 87)  0.2351E-02 ( 18,  1, 87)  0.3260E-03 ( 18,  1, 87)  0.1345E-03 ( 16,  1, 89)
   0.3805E-04 ( 16,  1, 90)  0.5995E-05 ( 17,  1, 90)  0.6158E-06 ( 16,  1, 89)



 >>>>>>>>>>>>>>>>>>>>>>>>>>>>>>>>>>>>>>>>>>>>>>>>>>>>>>>FOR COMPONENT NO. 01<<<<<<<<<<<<<<<<<<<<<<<<<<<<<<<<<<<<<<<<<<<<<<<<<<<<<<<


                                            -------------------------------------------
                                                      TRANSPORT STEP NO.  420
                                            -------------------------------------------

 TOTAL ELAPSED TIME SINCE BEGINNING OF SIMULATION =   21000.00    D   
 .....................................................................

                     CUMMULATIVE MASS BUDGETS AT END OF TRANSPORT STEP  420, TIME STEP    1, STRESS PERIOD    1
                     ------------------------------------------------------------------------------------------

                                                             IN                           OUT
                                                      ----------------             ----------------
                               CONSTANT CONCENTRATION:    0.000000                    0.000000    
                                        CONSTANT HEAD:   0.8311730E+09              -0.8309686E+09
                                                WELLS:    0.000000                    0.000000    
                                             RECHARGE:    0.000000                    0.000000    
                               1ST/0TH ORDER REACTION:    0.000000                    0.000000    
                                MASS STORAGE (SOLUTE):   0.1161865E+09              -0.1163911E+09
                            ---------------------------------------------------------------------------
                                              [TOTAL]:   0.9473604E+09 KG           -0.9473605E+09 KG  

                                                          NET (IN - OUT):   -134.9040    
                                                   DISCREPANCY (PERCENT):  -0.1423999E-04



 >>>>>>>>>>>>>>>>>>>>>>>>>>>>>>>>>>>>>>>>>>>>>>>>>>>>>>>FOR COMPONENT NO. 02<<<<<<<<<<<<<<<<<<<<<<<<<<<<<<<<<<<<<<<<<<<<<<<<<<<<<<<


                                            -------------------------------------------
                                                      TRANSPORT STEP NO.  420
                                            -------------------------------------------

 TOTAL ELAPSED TIME SINCE BEGINNING OF SIMULATION =   21000.00    D   
 .....................................................................

                     CUMMULATIVE MASS BUDGETS AT END OF TRANSPORT STEP  420, TIME STEP    1, STRESS PERIOD    1
                     ------------------------------------------------------------------------------------------

                                                             IN                           OUT
                                                      ----------------             ----------------
                               CONSTANT CONCENTRATION:    0.000000                    0.000000    
                                        CONSTANT HEAD:    0.000000                  -0.1114745E+12
                                                WELLS:    0.000000                    0.000000    
                                             RECHARGE:    0.000000                    0.000000    
                               1ST/0TH ORDER REACTION:   0.3475500E+12                0.000000    
                                MASS STORAGE (SOLUTE):   0.3281608E+11              -0.2688917E+12
                            ---------------------------------------------------------------------------
                                              [TOTAL]:   0.3803666E+12 KG           -0.3803666E+12 KG  

                                                          NET (IN - OUT):   -34725.13    
                                                   DISCREPANCY (PERCENT):  -0.9129383E-05
 
 SOLVING FOR HEAD 


     2 CALLS TO PCG ROUTINE FOR TIME STEP   1 IN STRESS PERIOD    1
     9 TOTAL ITERATIONS

 MAXIMUM HEAD CHANGE FOR EACH ITERATION (1 INDICATES THE FIRST INNER ITERATION):

    HEAD CHANGE    HEAD CHANGE    HEAD CHANGE    HEAD CHANGE    HEAD CHANGE 
   LAYER,ROW,COL  LAYER,ROW,COL  LAYER,ROW,COL  LAYER,ROW,COL  LAYER,ROW,COL
 ---------------------------------------------------------------------------
  1  0.1378E-01  0  0.4456E-02  0 -0.4101E-02  0 -0.1086E-01  0 -0.8748E-02
   ( 15,  1, 86)  ( 11,  1, 49)  (  8,  1, 12)  ( 11,  1, 49)  (  9,  1, 52)
  0 -0.1954E-02  0 -0.1211E-02  0 -0.7846E-03  1  0.5921E-03
   ( 11,  1, 55)  ( 11,  1, 70)  ( 11,  1, 59)  ( 11,  1, 59)

 MAXIMUM RESIDUAL FOR EACH ITERATION (1 INDICATES THE FIRST INNER ITERATION):

    RESIDUAL       RESIDUAL       RESIDUAL       RESIDUAL       RESIDUAL    
   LAYER,ROW,COL  LAYER,ROW,COL  LAYER,ROW,COL  LAYER,ROW,COL  LAYER,ROW,COL
 ---------------------------------------------------------------------------
  1  0.1331E+06  0 -0.9402E+05  0 -0.9327E+05  0 -0.5958E+05  0  -5774.    
   ( 21,  1, 89)  ( 19,  1, 89)  ( 19,  1, 89)  ( 19,  1, 89)  ( 17,  1, 87)
  0   2788.      0   2615.      0   1040.      1   922.9    
   ( 22,  1, 87)  ( 22,  1, 87)  ( 22,  1, 87)  ( 22,  1, 87)


 FLOW MODEL IS TRANSIENT
 FLOW MODEL CONTAINS CONSTANT-HEAD CELLS


 MAXIMUM STEPSIZE DURING WHICH ANY PARTICLE CANNOT MOVE MORE THAN ONE CELL
 =  12.92    (WHEN MIN. R.F.=1)  AT K=  17, I=   1, J=  90

 MAXIMUM STEPSIZE WHICH MEETS STABILITY CRITERION OF THE ADVECTION TERM
 (FOR PURE FINITE-DIFFERENCE OPTION, MIXELM=0) 
 =  8.062    (WHEN MIN. R.F.=1)  AT K=  16, I=   1, J=  90


 TOTAL NUMBER OF POINT SOURCES/SINKS PRESENT IN THE FLOW MODEL =    30

 MAXIMUM STEPSIZE WHICH MEETS STABILITY CRITERION OF THE SINK & SOURCE TERM
 =  12.30    (WHEN MIN. R.F.=1)  AT K=  17, I=   1, J=  91

 MAXIMUM STEPSIZE WHICH MEETS STABILITY CRITERION OF THE DISPERSION TERM
 =  4.055    (WHEN MIN. R.F.=1)  AT K=  17, I=   1, J=  90
     1 CALLS TO GCG PACKAGE FOR TRANSPORT TIME STEP 421 IN FLOW TIME STEP   1 STRESS PERIOD   1
     8 TOTAL ITERATIONS
     1 CALLS TO GCG PACKAGE FOR TRANSPORT TIME STEP 421 IN FLOW TIME STEP   1 STRESS PERIOD   1
     8 TOTAL ITERATIONS
 
 SOLVING FOR HEAD 


     2 CALLS TO PCG ROUTINE FOR TIME STEP   1 IN STRESS PERIOD    1
     8 TOTAL ITERATIONS

 MAXIMUM HEAD CHANGE FOR EACH ITERATION (1 INDICATES THE FIRST INNER ITERATION):

    HEAD CHANGE    HEAD CHANGE    HEAD CHANGE    HEAD CHANGE    HEAD CHANGE 
   LAYER,ROW,COL  LAYER,ROW,COL  LAYER,ROW,COL  LAYER,ROW,COL  LAYER,ROW,COL
 ---------------------------------------------------------------------------
  1 -0.1364E-01  0  0.3974E-02  0  0.3595E-02  0 -0.8385E-02  0  0.8758E-02
   ( 15,  1, 86)  ( 17,  1, 89)  (  8,  1, 12)  ( 11,  1, 59)  ( 11,  1, 59)
  0  0.1815E-02  0  0.7660E-03  1  0.6170E-03
   ( 11,  1, 68)  ( 11,  1, 52)  ( 11,  1, 59)

 MAXIMUM RESIDUAL FOR EACH ITERATION (1 INDICATES THE FIRST INNER ITERATION):

    RESIDUAL       RESIDUAL       RESIDUAL       RESIDUAL       RESIDUAL    
   LAYER,ROW,COL  LAYER,ROW,COL  LAYER,ROW,COL  LAYER,ROW,COL  LAYER,ROW,COL
 ---------------------------------------------------------------------------
  1 -0.1353E+06  0  0.9620E+05  0  0.9534E+05  0  0.1801E+05  0  -4594.    
   ( 21,  1, 89)  ( 19,  1, 89)  ( 19,  1, 89)  ( 19,  1, 89)  ( 17,  1, 88)
  0  -2836.      0  -2522.      1  -2072.    
   ( 22,  1, 87)  ( 22,  1, 87)  ( 22,  1, 87)


 FLOW MODEL IS TRANSIENT
 FLOW MODEL CONTAINS CONSTANT-HEAD CELLS


 MAXIMUM STEPSIZE DURING WHICH ANY PARTICLE CANNOT MOVE MORE THAN ONE CELL
 =  13.24    (WHEN MIN. R.F.=1)  AT K=  17, I=   1, J=  90

 MAXIMUM STEPSIZE WHICH MEETS STABILITY CRITERION OF THE ADVECTION TERM
 (FOR PURE FINITE-DIFFERENCE OPTION, MIXELM=0) 
 =  8.014    (WHEN MIN. R.F.=1)  AT K=  16, I=   1, J=  90


 TOTAL NUMBER OF POINT SOURCES/SINKS PRESENT IN THE FLOW MODEL =    30

 MAXIMUM STEPSIZE WHICH MEETS STABILITY CRITERION OF THE SINK & SOURCE TERM
 =  12.21    (WHEN MIN. R.F.=1)  AT K=  17, I=   1, J=  91

 MAXIMUM STEPSIZE WHICH MEETS STABILITY CRITERION OF THE DISPERSION TERM
 =  4.376    (WHEN MIN. R.F.=1)  AT K=  17, I=   1, J=  90
     1 CALLS TO GCG PACKAGE FOR TRANSPORT TIME STEP 422 IN FLOW TIME STEP   1 STRESS PERIOD   1
    10 TOTAL ITERATIONS
     1 CALLS TO GCG PACKAGE FOR TRANSPORT TIME STEP 422 IN FLOW TIME STEP   1 STRESS PERIOD   1
     8 TOTAL ITERATIONS
 
 SOLVING FOR HEAD 


     2 CALLS TO PCG ROUTINE FOR TIME STEP   1 IN STRESS PERIOD    1
     9 TOTAL ITERATIONS

 MAXIMUM HEAD CHANGE FOR EACH ITERATION (1 INDICATES THE FIRST INNER ITERATION):

    HEAD CHANGE    HEAD CHANGE    HEAD CHANGE    HEAD CHANGE    HEAD CHANGE 
   LAYER,ROW,COL  LAYER,ROW,COL  LAYER,ROW,COL  LAYER,ROW,COL  LAYER,ROW,COL
 ---------------------------------------------------------------------------
  1  0.1368E-01  0  0.6539E-02  0 -0.3220E-02  0 -0.9184E-02  0  0.6820E-02
   ( 15,  1, 86)  (  8,  1, 53)  (  7,  1, 12)  (  8,  1, 53)  (  8,  1, 51)
  0  0.3985E-02  0 -0.1758E-02  0 -0.9243E-03  1  0.7775E-03
   ( 11,  1, 59)  ( 11,  1, 59)  ( 11,  1, 70)  ( 11,  1, 70)

 MAXIMUM RESIDUAL FOR EACH ITERATION (1 INDICATES THE FIRST INNER ITERATION):

    RESIDUAL       RESIDUAL       RESIDUAL       RESIDUAL       RESIDUAL    
   LAYER,ROW,COL  LAYER,ROW,COL  LAYER,ROW,COL  LAYER,ROW,COL  LAYER,ROW,COL
 ---------------------------------------------------------------------------
  1  0.1366E+06  0 -0.9728E+05  0 -0.9624E+05  0 -0.7633E+05  0  -6190.    
   ( 21,  1, 89)  ( 19,  1, 89)  ( 19,  1, 89)  ( 19,  1, 89)  ( 17,  1, 87)
  0   2916.      0   2589.      0   1325.      1   1171.    
   ( 17,  1, 88)  ( 22,  1, 87)  ( 22,  1, 87)  ( 22,  1, 87)


 FLOW MODEL IS TRANSIENT
 FLOW MODEL CONTAINS CONSTANT-HEAD CELLS


 MAXIMUM STEPSIZE DURING WHICH ANY PARTICLE CANNOT MOVE MORE THAN ONE CELL
 =  12.89    (WHEN MIN. R.F.=1)  AT K=  17, I=   1, J=  90

 MAXIMUM STEPSIZE WHICH MEETS STABILITY CRITERION OF THE ADVECTION TERM
 (FOR PURE FINITE-DIFFERENCE OPTION, MIXELM=0) 
 =  8.056    (WHEN MIN. R.F.=1)  AT K=  16, I=   1, J=  90


 TOTAL NUMBER OF POINT SOURCES/SINKS PRESENT IN THE FLOW MODEL =    30

 MAXIMUM STEPSIZE WHICH MEETS STABILITY CRITERION OF THE SINK & SOURCE TERM
 =  12.27    (WHEN MIN. R.F.=1)  AT K=  17, I=   1, J=  91

 MAXIMUM STEPSIZE WHICH MEETS STABILITY CRITERION OF THE DISPERSION TERM
 =  4.040    (WHEN MIN. R.F.=1)  AT K=  17, I=   1, J=  90
     1 CALLS TO GCG PACKAGE FOR TRANSPORT TIME STEP 423 IN FLOW TIME STEP   1 STRESS PERIOD   1
     8 TOTAL ITERATIONS
     1 CALLS TO GCG PACKAGE FOR TRANSPORT TIME STEP 423 IN FLOW TIME STEP   1 STRESS PERIOD   1
     8 TOTAL ITERATIONS
 
 SOLVING FOR HEAD 


     2 CALLS TO PCG ROUTINE FOR TIME STEP   1 IN STRESS PERIOD    1
     8 TOTAL ITERATIONS

 MAXIMUM HEAD CHANGE FOR EACH ITERATION (1 INDICATES THE FIRST INNER ITERATION):

    HEAD CHANGE    HEAD CHANGE    HEAD CHANGE    HEAD CHANGE    HEAD CHANGE 
   LAYER,ROW,COL  LAYER,ROW,COL  LAYER,ROW,COL  LAYER,ROW,COL  LAYER,ROW,COL
 ---------------------------------------------------------------------------
  1 -0.1373E-01  0 -0.4577E-02  0  0.4902E-02  0 -0.7662E-02  0  0.8432E-02
   ( 15,  1, 86)  (  8,  1, 12)  (  8,  1, 12)  ( 11,  1, 49)  ( 11,  1, 49)
  0  0.2449E-02  0  0.8531E-03  1 -0.5687E-03
   ( 11,  1, 59)  ( 11,  1, 52)  ( 11,  1, 52)

 MAXIMUM RESIDUAL FOR EACH ITERATION (1 INDICATES THE FIRST INNER ITERATION):

    RESIDUAL       RESIDUAL       RESIDUAL       RESIDUAL       RESIDUAL    
   LAYER,ROW,COL  LAYER,ROW,COL  LAYER,ROW,COL  LAYER,ROW,COL  LAYER,ROW,COL
 ---------------------------------------------------------------------------
  1 -0.1357E+06  0  0.9613E+05  0  0.9553E+05  0  0.1731E+05  0  -4655.    
   ( 21,  1, 89)  ( 19,  1, 89)  ( 19,  1, 89)  ( 19,  1, 89)  ( 17,  1, 88)
  0  -2841.      0  -2188.      1  -1920.    
   ( 22,  1, 87)  ( 22,  1, 87)  ( 22,  1, 87)


 FLOW MODEL IS TRANSIENT
 FLOW MODEL CONTAINS CONSTANT-HEAD CELLS


 MAXIMUM STEPSIZE DURING WHICH ANY PARTICLE CANNOT MOVE MORE THAN ONE CELL
 =  13.25    (WHEN MIN. R.F.=1)  AT K=  17, I=   1, J=  90

 MAXIMUM STEPSIZE WHICH MEETS STABILITY CRITERION OF THE ADVECTION TERM
 (FOR PURE FINITE-DIFFERENCE OPTION, MIXELM=0) 
 =  8.014    (WHEN MIN. R.F.=1)  AT K=  16, I=   1, J=  90


 TOTAL NUMBER OF POINT SOURCES/SINKS PRESENT IN THE FLOW MODEL =    30

 MAXIMUM STEPSIZE WHICH MEETS STABILITY CRITERION OF THE SINK & SOURCE TERM
 =  12.19    (WHEN MIN. R.F.=1)  AT K=  17, I=   1, J=  91

 MAXIMUM STEPSIZE WHICH MEETS STABILITY CRITERION OF THE DISPERSION TERM
 =  4.384    (WHEN MIN. R.F.=1)  AT K=  17, I=   1, J=  90
     1 CALLS TO GCG PACKAGE FOR TRANSPORT TIME STEP 424 IN FLOW TIME STEP   1 STRESS PERIOD   1
    10 TOTAL ITERATIONS
     1 CALLS TO GCG PACKAGE FOR TRANSPORT TIME STEP 424 IN FLOW TIME STEP   1 STRESS PERIOD   1
     8 TOTAL ITERATIONS
 
 SOLVING FOR HEAD 


     2 CALLS TO PCG ROUTINE FOR TIME STEP   1 IN STRESS PERIOD    1
     9 TOTAL ITERATIONS

 MAXIMUM HEAD CHANGE FOR EACH ITERATION (1 INDICATES THE FIRST INNER ITERATION):

    HEAD CHANGE    HEAD CHANGE    HEAD CHANGE    HEAD CHANGE    HEAD CHANGE 
   LAYER,ROW,COL  LAYER,ROW,COL  LAYER,ROW,COL  LAYER,ROW,COL  LAYER,ROW,COL
 ---------------------------------------------------------------------------
  1  0.1364E-01  0 -0.4156E-02  0 -0.3038E-02  0  0.9945E-02  0  0.8628E-02
   ( 15,  1, 86)  ( 17,  1, 89)  (  7,  1, 12)  ( 11,  1, 38)  ( 10,  1, 52)
  0 -0.2657E-02  0 -0.1321E-02  0 -0.7276E-03  1  0.7147E-03
   ( 11,  1, 64)  ( 11,  1, 58)  ( 11,  1, 70)  ( 11,  1, 70)

 MAXIMUM RESIDUAL FOR EACH ITERATION (1 INDICATES THE FIRST INNER ITERATION):

    RESIDUAL       RESIDUAL       RESIDUAL       RESIDUAL       RESIDUAL    
   LAYER,ROW,COL  LAYER,ROW,COL  LAYER,ROW,COL  LAYER,ROW,COL  LAYER,ROW,COL
 ---------------------------------------------------------------------------
  1  0.1370E+06  0 -0.9793E+05  0 -0.9687E+05  0 -0.5737E+05  0  -5991.    
   ( 21,  1, 89)  ( 19,  1, 89)  ( 19,  1, 89)  ( 19,  1, 89)  ( 17,  1, 87)
  0   2749.      0   2537.      0   861.2      1   758.9    
   ( 22,  1, 87)  ( 22,  1, 87)  ( 22,  1, 87)  ( 22,  1, 87)


 FLOW MODEL IS TRANSIENT
 FLOW MODEL CONTAINS CONSTANT-HEAD CELLS


 MAXIMUM STEPSIZE DURING WHICH ANY PARTICLE CANNOT MOVE MORE THAN ONE CELL
 =  12.89    (WHEN MIN. R.F.=1)  AT K=  17, I=   1, J=  90

 MAXIMUM STEPSIZE WHICH MEETS STABILITY CRITERION OF THE ADVECTION TERM
 (FOR PURE FINITE-DIFFERENCE OPTION, MIXELM=0) 
 =  8.057    (WHEN MIN. R.F.=1)  AT K=  16, I=   1, J=  90


 TOTAL NUMBER OF POINT SOURCES/SINKS PRESENT IN THE FLOW MODEL =    30

 MAXIMUM STEPSIZE WHICH MEETS STABILITY CRITERION OF THE SINK & SOURCE TERM
 =  12.26    (WHEN MIN. R.F.=1)  AT K=  17, I=   1, J=  91

 MAXIMUM STEPSIZE WHICH MEETS STABILITY CRITERION OF THE DISPERSION TERM
 =  4.038    (WHEN MIN. R.F.=1)  AT K=  17, I=   1, J=  90
     1 CALLS TO GCG PACKAGE FOR TRANSPORT TIME STEP 425 IN FLOW TIME STEP   1 STRESS PERIOD   1
     8 TOTAL ITERATIONS
  MAXIMUM CONCENTRATION CHANGES FOR EACH ITERATION:
  MAX. CHANGE LAYER,ROW,COL MAX. CHANGE LAYER,ROW,COL MAX. CHANGE LAYER,ROW,COL MAX. CHANGE LAYER,ROW,COL MAX. CHANGE LAYER,ROW,COL
 ------------------------------------------------------------------------------------------------------------------------------------
   0.5225E-01 ( 20,  1, 87)  0.4314E-02 ( 19,  1, 89)  0.2085E-02 ( 17,  1, 86)  0.4953E-03 ( 20,  1, 89)  0.9435E-04 ( 16,  1, 89)
   0.2083E-04 ( 20,  1, 89)  0.2215E-04 ( 16,  1, 90)  0.6855E-06 ( 17,  1, 90)
     1 CALLS TO GCG PACKAGE FOR TRANSPORT TIME STEP 425 IN FLOW TIME STEP   1 STRESS PERIOD   1
     8 TOTAL ITERATIONS
  MAXIMUM CONCENTRATION CHANGES FOR EACH ITERATION:
  MAX. CHANGE LAYER,ROW,COL MAX. CHANGE LAYER,ROW,COL MAX. CHANGE LAYER,ROW,COL MAX. CHANGE LAYER,ROW,COL MAX. CHANGE LAYER,ROW,COL
 ------------------------------------------------------------------------------------------------------------------------------------
   0.6077E-01 ( 20,  1, 87)  0.5080E-02 ( 19,  1, 89)  0.2055E-02 ( 19,  1, 89)  0.4803E-03 ( 19,  1, 89)  0.1224E-03 ( 16,  1, 89)
   0.3016E-04 ( 23,  1, 87)  0.1799E-04 ( 17,  1, 90)  0.8879E-06 ( 17,  1, 90)
 
 SOLVING FOR HEAD 


     2 CALLS TO PCG ROUTINE FOR TIME STEP   1 IN STRESS PERIOD    1
     8 TOTAL ITERATIONS

 MAXIMUM HEAD CHANGE FOR EACH ITERATION (1 INDICATES THE FIRST INNER ITERATION):

    HEAD CHANGE    HEAD CHANGE    HEAD CHANGE    HEAD CHANGE    HEAD CHANGE 
   LAYER,ROW,COL  LAYER,ROW,COL  LAYER,ROW,COL  LAYER,ROW,COL  LAYER,ROW,COL
 ---------------------------------------------------------------------------
  1 -0.1364E-01  0 -0.4249E-02  0  0.4601E-02  0 -0.9233E-02  0 -0.1049E-01
   ( 15,  1, 86)  (  8,  1, 12)  (  8,  1, 12)  ( 11,  1, 68)  ( 11,  1, 55)
  0  0.1959E-02  0  0.9324E-03  1 -0.5832E-03
   ( 11,  1, 56)  ( 11,  1, 63)  ( 11,  1, 62)

 MAXIMUM RESIDUAL FOR EACH ITERATION (1 INDICATES THE FIRST INNER ITERATION):

    RESIDUAL       RESIDUAL       RESIDUAL       RESIDUAL       RESIDUAL    
   LAYER,ROW,COL  LAYER,ROW,COL  LAYER,ROW,COL  LAYER,ROW,COL  LAYER,ROW,COL
 ---------------------------------------------------------------------------
  1 -0.1356E+06  0  0.9566E+05  0  0.9501E+05  0  0.2295E+05  0   5192.    
   ( 21,  1, 89)  ( 19,  1, 89)  ( 19,  1, 89)  ( 19,  1, 89)  ( 17,  1, 87)
  0  -2846.      0  -2205.      1  -1934.    
   ( 22,  1, 87)  ( 22,  1, 87)  ( 22,  1, 87)


 FLOW MODEL IS TRANSIENT
 FLOW MODEL CONTAINS CONSTANT-HEAD CELLS


 MAXIMUM STEPSIZE DURING WHICH ANY PARTICLE CANNOT MOVE MORE THAN ONE CELL
 =  13.27    (WHEN MIN. R.F.=1)  AT K=  17, I=   1, J=  90

 MAXIMUM STEPSIZE WHICH MEETS STABILITY CRITERION OF THE ADVECTION TERM
 (FOR PURE FINITE-DIFFERENCE OPTION, MIXELM=0) 
 =  8.021    (WHEN MIN. R.F.=1)  AT K=  16, I=   1, J=  90


 TOTAL NUMBER OF POINT SOURCES/SINKS PRESENT IN THE FLOW MODEL =    30

 MAXIMUM STEPSIZE WHICH MEETS STABILITY CRITERION OF THE SINK & SOURCE TERM
 =  12.21    (WHEN MIN. R.F.=1)  AT K=  17, I=   1, J=  91

 MAXIMUM STEPSIZE WHICH MEETS STABILITY CRITERION OF THE DISPERSION TERM
 =  4.391    (WHEN MIN. R.F.=1)  AT K=  17, I=   1, J=  90
     1 CALLS TO GCG PACKAGE FOR TRANSPORT TIME STEP 426 IN FLOW TIME STEP   1 STRESS PERIOD   1
    10 TOTAL ITERATIONS
     1 CALLS TO GCG PACKAGE FOR TRANSPORT TIME STEP 426 IN FLOW TIME STEP   1 STRESS PERIOD   1
     8 TOTAL ITERATIONS
 
 SOLVING FOR HEAD 


     2 CALLS TO PCG ROUTINE FOR TIME STEP   1 IN STRESS PERIOD    1
     9 TOTAL ITERATIONS

 MAXIMUM HEAD CHANGE FOR EACH ITERATION (1 INDICATES THE FIRST INNER ITERATION):

    HEAD CHANGE    HEAD CHANGE    HEAD CHANGE    HEAD CHANGE    HEAD CHANGE 
   LAYER,ROW,COL  LAYER,ROW,COL  LAYER,ROW,COL  LAYER,ROW,COL  LAYER,ROW,COL
 ---------------------------------------------------------------------------
  1  0.1363E-01  0 -0.4089E-02  0 -0.2708E-02  0 -0.9605E-02  0  0.9135E-02
   ( 15,  1, 86)  ( 17,  1, 89)  (  7,  1, 12)  (  8,  1, 42)  (  7,  1, 42)
  0 -0.3064E-02  0 -0.1250E-02  0 -0.8232E-03  1  0.7070E-03
   ( 11,  1, 63)  ( 11,  1, 49)  ( 11,  1, 70)  ( 11,  1, 70)

 MAXIMUM RESIDUAL FOR EACH ITERATION (1 INDICATES THE FIRST INNER ITERATION):

    RESIDUAL       RESIDUAL       RESIDUAL       RESIDUAL       RESIDUAL    
   LAYER,ROW,COL  LAYER,ROW,COL  LAYER,ROW,COL  LAYER,ROW,COL  LAYER,ROW,COL
 ---------------------------------------------------------------------------
  1  0.1366E+06  0 -0.9721E+05  0 -0.9602E+05  0 -0.5221E+05  0  -5856.    
   ( 21,  1, 89)  ( 19,  1, 89)  ( 19,  1, 89)  ( 19,  1, 89)  ( 17,  1, 87)
  0   2848.      0   2603.      0   1159.      1   1023.    
   ( 17,  1, 88)  ( 22,  1, 87)  ( 22,  1, 87)  ( 22,  1, 87)


 FLOW MODEL IS TRANSIENT
 FLOW MODEL CONTAINS CONSTANT-HEAD CELLS


 MAXIMUM STEPSIZE DURING WHICH ANY PARTICLE CANNOT MOVE MORE THAN ONE CELL
 =  12.90    (WHEN MIN. R.F.=1)  AT K=  17, I=   1, J=  90

 MAXIMUM STEPSIZE WHICH MEETS STABILITY CRITERION OF THE ADVECTION TERM
 (FOR PURE FINITE-DIFFERENCE OPTION, MIXELM=0) 
 =  8.062    (WHEN MIN. R.F.=1)  AT K=  16, I=   1, J=  90


 TOTAL NUMBER OF POINT SOURCES/SINKS PRESENT IN THE FLOW MODEL =    30

 MAXIMUM STEPSIZE WHICH MEETS STABILITY CRITERION OF THE SINK & SOURCE TERM
 =  12.28    (WHEN MIN. R.F.=1)  AT K=  17, I=   1, J=  91

 MAXIMUM STEPSIZE WHICH MEETS STABILITY CRITERION OF THE DISPERSION TERM
 =  4.046    (WHEN MIN. R.F.=1)  AT K=  17, I=   1, J=  90
     1 CALLS TO GCG PACKAGE FOR TRANSPORT TIME STEP 427 IN FLOW TIME STEP   1 STRESS PERIOD   1
     8 TOTAL ITERATIONS
     1 CALLS TO GCG PACKAGE FOR TRANSPORT TIME STEP 427 IN FLOW TIME STEP   1 STRESS PERIOD   1
     8 TOTAL ITERATIONS
 
 SOLVING FOR HEAD 


     2 CALLS TO PCG ROUTINE FOR TIME STEP   1 IN STRESS PERIOD    1
     9 TOTAL ITERATIONS

 MAXIMUM HEAD CHANGE FOR EACH ITERATION (1 INDICATES THE FIRST INNER ITERATION):

    HEAD CHANGE    HEAD CHANGE    HEAD CHANGE    HEAD CHANGE    HEAD CHANGE 
   LAYER,ROW,COL  LAYER,ROW,COL  LAYER,ROW,COL  LAYER,ROW,COL  LAYER,ROW,COL
 ---------------------------------------------------------------------------
  1 -0.1373E-01  0 -0.4719E-02  0  0.5049E-02  0  0.1001E-01  0 -0.1158E-01
   ( 15,  1, 86)  (  8,  1, 12)  (  8,  1, 12)  ( 11,  1, 51)  ( 11,  1, 51)
  0  0.2130E-02  0  0.1041E-02  0  0.5593E-03  1 -0.3271E-03
   ( 11,  1, 51)  ( 11,  1, 64)  ( 11,  1, 36)  ( 11,  1, 40)

 MAXIMUM RESIDUAL FOR EACH ITERATION (1 INDICATES THE FIRST INNER ITERATION):

    RESIDUAL       RESIDUAL       RESIDUAL       RESIDUAL       RESIDUAL    
   LAYER,ROW,COL  LAYER,ROW,COL  LAYER,ROW,COL  LAYER,ROW,COL  LAYER,ROW,COL
 ---------------------------------------------------------------------------
  1 -0.1377E+06  0  0.9777E+05  0  0.9717E+05  0  0.2072E+05  0  -4995.    
   ( 21,  1, 89)  ( 19,  1, 89)  ( 19,  1, 89)  ( 19,  1, 89)  ( 17,  1, 88)
  0  -2820.      0  -2366.      0  -807.7      1  -716.1    
   ( 22,  1, 87)  ( 22,  1, 87)  ( 22,  1, 87)  ( 22,  1, 87)


 FLOW MODEL IS TRANSIENT
 FLOW MODEL CONTAINS CONSTANT-HEAD CELLS


 MAXIMUM STEPSIZE DURING WHICH ANY PARTICLE CANNOT MOVE MORE THAN ONE CELL
 =  13.24    (WHEN MIN. R.F.=1)  AT K=  17, I=   1, J=  90

 MAXIMUM STEPSIZE WHICH MEETS STABILITY CRITERION OF THE ADVECTION TERM
 (FOR PURE FINITE-DIFFERENCE OPTION, MIXELM=0) 
 =  8.012    (WHEN MIN. R.F.=1)  AT K=  16, I=   1, J=  90


 TOTAL NUMBER OF POINT SOURCES/SINKS PRESENT IN THE FLOW MODEL =    30

 MAXIMUM STEPSIZE WHICH MEETS STABILITY CRITERION OF THE SINK & SOURCE TERM
 =  12.19    (WHEN MIN. R.F.=1)  AT K=  17, I=   1, J=  91

 MAXIMUM STEPSIZE WHICH MEETS STABILITY CRITERION OF THE DISPERSION TERM
 =  4.384    (WHEN MIN. R.F.=1)  AT K=  17, I=   1, J=  90
     1 CALLS TO GCG PACKAGE FOR TRANSPORT TIME STEP 428 IN FLOW TIME STEP   1 STRESS PERIOD   1
     9 TOTAL ITERATIONS
     1 CALLS TO GCG PACKAGE FOR TRANSPORT TIME STEP 428 IN FLOW TIME STEP   1 STRESS PERIOD   1
     8 TOTAL ITERATIONS
 
 SOLVING FOR HEAD 


     2 CALLS TO PCG ROUTINE FOR TIME STEP   1 IN STRESS PERIOD    1
     9 TOTAL ITERATIONS

 MAXIMUM HEAD CHANGE FOR EACH ITERATION (1 INDICATES THE FIRST INNER ITERATION):

    HEAD CHANGE    HEAD CHANGE    HEAD CHANGE    HEAD CHANGE    HEAD CHANGE 
   LAYER,ROW,COL  LAYER,ROW,COL  LAYER,ROW,COL  LAYER,ROW,COL  LAYER,ROW,COL
 ---------------------------------------------------------------------------
  1  0.1333E-01  0 -0.3775E-02  0 -0.6825E-02  0 -0.4391E-02  0  0.9162E-02
   ( 15,  1, 86)  ( 17,  1, 89)  (  8,  1, 46)  (  7,  1, 12)  (  7,  1, 45)
  0  0.1468E-02  0 -0.1125E-02  0 -0.7610E-03  1  0.9154E-03
   ( 11,  1, 49)  ( 11,  1, 49)  ( 11,  1, 70)  ( 11,  1, 70)

 MAXIMUM RESIDUAL FOR EACH ITERATION (1 INDICATES THE FIRST INNER ITERATION):

    RESIDUAL       RESIDUAL       RESIDUAL       RESIDUAL       RESIDUAL    
   LAYER,ROW,COL  LAYER,ROW,COL  LAYER,ROW,COL  LAYER,ROW,COL  LAYER,ROW,COL
 ---------------------------------------------------------------------------
  1  0.1358E+06  0 -0.9587E+05  0 -0.5199E+05  0 -0.3554E+05  0  -6142.    
   ( 21,  1, 89)  ( 19,  1, 89)  ( 19,  1, 89)  ( 19,  1, 89)  ( 17,  1, 87)
  0   2871.      0   2392.      0   902.8      1   755.6    
   ( 22,  1, 87)  ( 22,  1, 87)  ( 22,  1, 87)  ( 22,  1, 87)


 FLOW MODEL IS TRANSIENT
 FLOW MODEL CONTAINS CONSTANT-HEAD CELLS


 MAXIMUM STEPSIZE DURING WHICH ANY PARTICLE CANNOT MOVE MORE THAN ONE CELL
 =  12.86    (WHEN MIN. R.F.=1)  AT K=  17, I=   1, J=  90

 MAXIMUM STEPSIZE WHICH MEETS STABILITY CRITERION OF THE ADVECTION TERM
 (FOR PURE FINITE-DIFFERENCE OPTION, MIXELM=0) 
 =  8.039    (WHEN MIN. R.F.=1)  AT K=  16, I=   1, J=  90


 TOTAL NUMBER OF POINT SOURCES/SINKS PRESENT IN THE FLOW MODEL =    30

 MAXIMUM STEPSIZE WHICH MEETS STABILITY CRITERION OF THE SINK & SOURCE TERM
 =  12.21    (WHEN MIN. R.F.=1)  AT K=  17, I=   1, J=  91

 MAXIMUM STEPSIZE WHICH MEETS STABILITY CRITERION OF THE DISPERSION TERM
 =  4.030    (WHEN MIN. R.F.=1)  AT K=  17, I=   1, J=  90
     1 CALLS TO GCG PACKAGE FOR TRANSPORT TIME STEP 429 IN FLOW TIME STEP   1 STRESS PERIOD   1
     8 TOTAL ITERATIONS
     1 CALLS TO GCG PACKAGE FOR TRANSPORT TIME STEP 429 IN FLOW TIME STEP   1 STRESS PERIOD   1
     8 TOTAL ITERATIONS
 
 SOLVING FOR HEAD 


     2 CALLS TO PCG ROUTINE FOR TIME STEP   1 IN STRESS PERIOD    1
     8 TOTAL ITERATIONS

 MAXIMUM HEAD CHANGE FOR EACH ITERATION (1 INDICATES THE FIRST INNER ITERATION):

    HEAD CHANGE    HEAD CHANGE    HEAD CHANGE    HEAD CHANGE    HEAD CHANGE 
   LAYER,ROW,COL  LAYER,ROW,COL  LAYER,ROW,COL  LAYER,ROW,COL  LAYER,ROW,COL
 ---------------------------------------------------------------------------
  1 -0.1353E-01  0  0.3773E-02  0  0.3708E-02  0  0.1343E-01  0 -0.1364E-01
   ( 15,  1, 86)  ( 17,  1, 89)  (  8,  1, 12)  ( 11,  1, 52)  ( 11,  1, 52)
  0  0.1509E-02  0  0.7787E-03  1  0.5419E-03
   ( 11,  1, 49)  ( 11,  1, 64)  ( 11,  1, 35)

 MAXIMUM RESIDUAL FOR EACH ITERATION (1 INDICATES THE FIRST INNER ITERATION):

    RESIDUAL       RESIDUAL       RESIDUAL       RESIDUAL       RESIDUAL    
   LAYER,ROW,COL  LAYER,ROW,COL  LAYER,ROW,COL  LAYER,ROW,COL  LAYER,ROW,COL
 ---------------------------------------------------------------------------
  1 -0.1347E+06  0  0.9488E+05  0  0.9405E+05  0  0.2961E+05  0   5418.    
   ( 21,  1, 89)  ( 19,  1, 89)  ( 19,  1, 89)  ( 19,  1, 89)  ( 17,  1, 87)
  0  -2810.      0  -2340.      1  -1999.    
   ( 22,  1, 87)  ( 22,  1, 87)  ( 22,  1, 87)


 FLOW MODEL IS TRANSIENT
 FLOW MODEL CONTAINS CONSTANT-HEAD CELLS


 MAXIMUM STEPSIZE DURING WHICH ANY PARTICLE CANNOT MOVE MORE THAN ONE CELL
 =  13.23    (WHEN MIN. R.F.=1)  AT K=  17, I=   1, J=  90

 MAXIMUM STEPSIZE WHICH MEETS STABILITY CRITERION OF THE ADVECTION TERM
 (FOR PURE FINITE-DIFFERENCE OPTION, MIXELM=0) 
 =  8.011    (WHEN MIN. R.F.=1)  AT K=  16, I=   1, J=  90


 TOTAL NUMBER OF POINT SOURCES/SINKS PRESENT IN THE FLOW MODEL =    30

 MAXIMUM STEPSIZE WHICH MEETS STABILITY CRITERION OF THE SINK & SOURCE TERM
 =  12.17    (WHEN MIN. R.F.=1)  AT K=  17, I=   1, J=  91

 MAXIMUM STEPSIZE WHICH MEETS STABILITY CRITERION OF THE DISPERSION TERM
 =  4.371    (WHEN MIN. R.F.=1)  AT K=  17, I=   1, J=  90
     1 CALLS TO GCG PACKAGE FOR TRANSPORT TIME STEP 430 IN FLOW TIME STEP   1 STRESS PERIOD   1
    10 TOTAL ITERATIONS
  MAXIMUM CONCENTRATION CHANGES FOR EACH ITERATION:
  MAX. CHANGE LAYER,ROW,COL MAX. CHANGE LAYER,ROW,COL MAX. CHANGE LAYER,ROW,COL MAX. CHANGE LAYER,ROW,COL MAX. CHANGE LAYER,ROW,COL
 ------------------------------------------------------------------------------------------------------------------------------------
   0.4889E-01 ( 20,  1, 87)  0.3342E-02 ( 19,  1, 87)  0.2195E-02 ( 18,  1, 87)  0.2172E-03 ( 16,  1, 88)  0.1450E-03 ( 16,  1, 89)
   0.2821E-04 ( 16,  1, 90)  0.3363E-05 ( 21,  1, 78)  0.1425E-05 ( 16,  1, 89)  0.3805E-05 ( 16,  1, 89)  0.9004E-07 ( 17,  1, 89)
     1 CALLS TO GCG PACKAGE FOR TRANSPORT TIME STEP 430 IN FLOW TIME STEP   1 STRESS PERIOD   1
     8 TOTAL ITERATIONS
  MAXIMUM CONCENTRATION CHANGES FOR EACH ITERATION:
  MAX. CHANGE LAYER,ROW,COL MAX. CHANGE LAYER,ROW,COL MAX. CHANGE LAYER,ROW,COL MAX. CHANGE LAYER,ROW,COL MAX. CHANGE LAYER,ROW,COL
 ------------------------------------------------------------------------------------------------------------------------------------
   0.5608E-01 ( 20,  1, 87)  0.4299E-02 ( 19,  1, 87)  0.2348E-02 ( 18,  1, 87)  0.3174E-03 ( 18,  1, 87)  0.1352E-03 ( 16,  1, 89)
   0.3797E-04 ( 16,  1, 90)  0.5875E-05 ( 17,  1, 90)  0.6122E-06 ( 16,  1, 89)



 >>>>>>>>>>>>>>>>>>>>>>>>>>>>>>>>>>>>>>>>>>>>>>>>>>>>>>>FOR COMPONENT NO. 01<<<<<<<<<<<<<<<<<<<<<<<<<<<<<<<<<<<<<<<<<<<<<<<<<<<<<<<


                                            -------------------------------------------
                                                      TRANSPORT STEP NO.  430
                                            -------------------------------------------

 TOTAL ELAPSED TIME SINCE BEGINNING OF SIMULATION =   21500.00    D   
 .....................................................................

                     CUMMULATIVE MASS BUDGETS AT END OF TRANSPORT STEP  430, TIME STEP    1, STRESS PERIOD    1
                     ------------------------------------------------------------------------------------------

                                                             IN                           OUT
                                                      ----------------             ----------------
                               CONSTANT CONCENTRATION:    0.000000                    0.000000    
                                        CONSTANT HEAD:   0.8509060E+09              -0.8507047E+09
                                                WELLS:    0.000000                    0.000000    
                                             RECHARGE:    0.000000                    0.000000    
                               1ST/0TH ORDER REACTION:    0.000000                    0.000000    
                                MASS STORAGE (SOLUTE):   0.1189594E+09              -0.1191609E+09
                            ---------------------------------------------------------------------------
                                              [TOTAL]:   0.9698664E+09 KG           -0.9698665E+09 KG  

                                                          NET (IN - OUT):   -127.5427    
                                                   DISCREPANCY (PERCENT):  -0.1315054E-04



 >>>>>>>>>>>>>>>>>>>>>>>>>>>>>>>>>>>>>>>>>>>>>>>>>>>>>>>FOR COMPONENT NO. 02<<<<<<<<<<<<<<<<<<<<<<<<<<<<<<<<<<<<<<<<<<<<<<<<<<<<<<<


                                            -------------------------------------------
                                                      TRANSPORT STEP NO.  430
                                            -------------------------------------------

 TOTAL ELAPSED TIME SINCE BEGINNING OF SIMULATION =   21500.00    D   
 .....................................................................

                     CUMMULATIVE MASS BUDGETS AT END OF TRANSPORT STEP  430, TIME STEP    1, STRESS PERIOD    1
                     ------------------------------------------------------------------------------------------

                                                             IN                           OUT
                                                      ----------------             ----------------
                               CONSTANT CONCENTRATION:    0.000000                    0.000000    
                                        CONSTANT HEAD:    0.000000                  -0.1160181E+12
                                                WELLS:    0.000000                    0.000000    
                                             RECHARGE:    0.000000                    0.000000    
                               1ST/0TH ORDER REACTION:   0.3558250E+12                0.000000    
                                MASS STORAGE (SOLUTE):   0.3448311E+11              -0.2742901E+12
                            ---------------------------------------------------------------------------
                                              [TOTAL]:   0.3903086E+12 KG           -0.3903087E+12 KG  

                                                          NET (IN - OUT):   -37030.07    
                                                   DISCREPANCY (PERCENT):  -0.9487381E-05
 
 SOLVING FOR HEAD 


     2 CALLS TO PCG ROUTINE FOR TIME STEP   1 IN STRESS PERIOD    1
     9 TOTAL ITERATIONS

 MAXIMUM HEAD CHANGE FOR EACH ITERATION (1 INDICATES THE FIRST INNER ITERATION):

    HEAD CHANGE    HEAD CHANGE    HEAD CHANGE    HEAD CHANGE    HEAD CHANGE 
   LAYER,ROW,COL  LAYER,ROW,COL  LAYER,ROW,COL  LAYER,ROW,COL  LAYER,ROW,COL
 ---------------------------------------------------------------------------
  1  0.1379E-01  0  0.4190E-02  0 -0.3571E-02  0 -0.9587E-02  0 -0.7780E-02
   ( 15,  1, 86)  ( 11,  1, 35)  (  8,  1, 12)  ( 11,  1, 35)  (  8,  1, 48)
  0  0.3356E-02  0 -0.1587E-02  0 -0.7365E-03  1  0.5669E-03
   ( 11,  1, 58)  ( 11,  1, 58)  ( 11,  1, 49)  ( 11,  1, 49)

 MAXIMUM RESIDUAL FOR EACH ITERATION (1 INDICATES THE FIRST INNER ITERATION):

    RESIDUAL       RESIDUAL       RESIDUAL       RESIDUAL       RESIDUAL    
   LAYER,ROW,COL  LAYER,ROW,COL  LAYER,ROW,COL  LAYER,ROW,COL  LAYER,ROW,COL
 ---------------------------------------------------------------------------
  1  0.1338E+06  0 -0.9460E+05  0 -0.9373E+05  0 -0.6184E+05  0  -6071.    
   ( 21,  1, 89)  ( 19,  1, 89)  ( 19,  1, 89)  ( 19,  1, 89)  ( 17,  1, 87)
  0   2797.      0   2610.      0   1397.      1   1242.    
   ( 17,  1, 88)  ( 22,  1, 87)  ( 22,  1, 87)  ( 22,  1, 87)


 FLOW MODEL IS TRANSIENT
 FLOW MODEL CONTAINS CONSTANT-HEAD CELLS


 MAXIMUM STEPSIZE DURING WHICH ANY PARTICLE CANNOT MOVE MORE THAN ONE CELL
 =  12.91    (WHEN MIN. R.F.=1)  AT K=  17, I=   1, J=  90

 MAXIMUM STEPSIZE WHICH MEETS STABILITY CRITERION OF THE ADVECTION TERM
 (FOR PURE FINITE-DIFFERENCE OPTION, MIXELM=0) 
 =  8.059    (WHEN MIN. R.F.=1)  AT K=  16, I=   1, J=  90


 TOTAL NUMBER OF POINT SOURCES/SINKS PRESENT IN THE FLOW MODEL =    30

 MAXIMUM STEPSIZE WHICH MEETS STABILITY CRITERION OF THE SINK & SOURCE TERM
 =  12.28    (WHEN MIN. R.F.=1)  AT K=  17, I=   1, J=  91

 MAXIMUM STEPSIZE WHICH MEETS STABILITY CRITERION OF THE DISPERSION TERM
 =  4.048    (WHEN MIN. R.F.=1)  AT K=  17, I=   1, J=  90
     1 CALLS TO GCG PACKAGE FOR TRANSPORT TIME STEP 431 IN FLOW TIME STEP   1 STRESS PERIOD   1
     8 TOTAL ITERATIONS
     1 CALLS TO GCG PACKAGE FOR TRANSPORT TIME STEP 431 IN FLOW TIME STEP   1 STRESS PERIOD   1
     8 TOTAL ITERATIONS
 
 SOLVING FOR HEAD 


     2 CALLS TO PCG ROUTINE FOR TIME STEP   1 IN STRESS PERIOD    1
     8 TOTAL ITERATIONS

 MAXIMUM HEAD CHANGE FOR EACH ITERATION (1 INDICATES THE FIRST INNER ITERATION):

    HEAD CHANGE    HEAD CHANGE    HEAD CHANGE    HEAD CHANGE    HEAD CHANGE 
   LAYER,ROW,COL  LAYER,ROW,COL  LAYER,ROW,COL  LAYER,ROW,COL  LAYER,ROW,COL
 ---------------------------------------------------------------------------
  1 -0.1369E-01  0  0.4094E-02  0  0.4444E-02  0  0.8219E-02  0 -0.9736E-02
   ( 15,  1, 86)  ( 17,  1, 89)  (  8,  1, 12)  ( 11,  1, 58)  ( 11,  1, 58)
  0  0.1783E-02  0 -0.5762E-03  1  0.5150E-03
   ( 11,  1, 59)  ( 11,  1, 68)  ( 11,  1, 67)

 MAXIMUM RESIDUAL FOR EACH ITERATION (1 INDICATES THE FIRST INNER ITERATION):

    RESIDUAL       RESIDUAL       RESIDUAL       RESIDUAL       RESIDUAL    
   LAYER,ROW,COL  LAYER,ROW,COL  LAYER,ROW,COL  LAYER,ROW,COL  LAYER,ROW,COL
 ---------------------------------------------------------------------------
  1 -0.1364E+06  0  0.9723E+05  0  0.9652E+05  0  0.2028E+05  0  -4943.    
   ( 21,  1, 89)  ( 19,  1, 89)  ( 19,  1, 89)  ( 19,  1, 89)  ( 17,  1, 88)
  0  -2830.      0  -2534.      1  -2058.    
   ( 22,  1, 87)  ( 22,  1, 87)  ( 22,  1, 87)


 FLOW MODEL IS TRANSIENT
 FLOW MODEL CONTAINS CONSTANT-HEAD CELLS


 MAXIMUM STEPSIZE DURING WHICH ANY PARTICLE CANNOT MOVE MORE THAN ONE CELL
 =  13.24    (WHEN MIN. R.F.=1)  AT K=  17, I=   1, J=  90

 MAXIMUM STEPSIZE WHICH MEETS STABILITY CRITERION OF THE ADVECTION TERM
 (FOR PURE FINITE-DIFFERENCE OPTION, MIXELM=0) 
 =  8.010    (WHEN MIN. R.F.=1)  AT K=  16, I=   1, J=  90


 TOTAL NUMBER OF POINT SOURCES/SINKS PRESENT IN THE FLOW MODEL =    30

 MAXIMUM STEPSIZE WHICH MEETS STABILITY CRITERION OF THE SINK & SOURCE TERM
 =  12.19    (WHEN MIN. R.F.=1)  AT K=  17, I=   1, J=  91

 MAXIMUM STEPSIZE WHICH MEETS STABILITY CRITERION OF THE DISPERSION TERM
 =  4.378    (WHEN MIN. R.F.=1)  AT K=  17, I=   1, J=  90
     1 CALLS TO GCG PACKAGE FOR TRANSPORT TIME STEP 432 IN FLOW TIME STEP   1 STRESS PERIOD   1
    10 TOTAL ITERATIONS
     1 CALLS TO GCG PACKAGE FOR TRANSPORT TIME STEP 432 IN FLOW TIME STEP   1 STRESS PERIOD   1
     8 TOTAL ITERATIONS
 
 SOLVING FOR HEAD 


     2 CALLS TO PCG ROUTINE FOR TIME STEP   1 IN STRESS PERIOD    1
     9 TOTAL ITERATIONS

 MAXIMUM HEAD CHANGE FOR EACH ITERATION (1 INDICATES THE FIRST INNER ITERATION):

    HEAD CHANGE    HEAD CHANGE    HEAD CHANGE    HEAD CHANGE    HEAD CHANGE 
   LAYER,ROW,COL  LAYER,ROW,COL  LAYER,ROW,COL  LAYER,ROW,COL  LAYER,ROW,COL
 ---------------------------------------------------------------------------
  1  0.1369E-01  0  0.6639E-02  0 -0.3250E-02  0 -0.8694E-02  0  0.6211E-02
   ( 15,  1, 86)  (  8,  1, 42)  (  7,  1, 12)  ( 11,  1, 68)  ( 10,  1, 50)
  0  0.3869E-02  0  0.1355E-02  0 -0.6642E-03  1  0.4686E-03
   ( 11,  1, 49)  ( 11,  1, 59)  ( 11,  1, 58)  ( 11,  1, 58)

 MAXIMUM RESIDUAL FOR EACH ITERATION (1 INDICATES THE FIRST INNER ITERATION):

    RESIDUAL       RESIDUAL       RESIDUAL       RESIDUAL       RESIDUAL    
   LAYER,ROW,COL  LAYER,ROW,COL  LAYER,ROW,COL  LAYER,ROW,COL  LAYER,ROW,COL
 ---------------------------------------------------------------------------
  1  0.1372E+06  0 -0.9777E+05  0 -0.9672E+05  0 -0.7777E+05  0  -6298.    
   ( 21,  1, 89)  ( 19,  1, 89)  ( 19,  1, 89)  ( 19,  1, 89)  ( 17,  1, 87)
  0   3111.      0   2574.      0   868.3      1   753.3    
   ( 17,  1, 88)  ( 22,  1, 87)  ( 22,  1, 87)  ( 22,  1, 87)


 FLOW MODEL IS TRANSIENT
 FLOW MODEL CONTAINS CONSTANT-HEAD CELLS


 MAXIMUM STEPSIZE DURING WHICH ANY PARTICLE CANNOT MOVE MORE THAN ONE CELL
 =  12.89    (WHEN MIN. R.F.=1)  AT K=  17, I=   1, J=  90

 MAXIMUM STEPSIZE WHICH MEETS STABILITY CRITERION OF THE ADVECTION TERM
 (FOR PURE FINITE-DIFFERENCE OPTION, MIXELM=0) 
 =  8.054    (WHEN MIN. R.F.=1)  AT K=  16, I=   1, J=  90


 TOTAL NUMBER OF POINT SOURCES/SINKS PRESENT IN THE FLOW MODEL =    30

 MAXIMUM STEPSIZE WHICH MEETS STABILITY CRITERION OF THE SINK & SOURCE TERM
 =  12.25    (WHEN MIN. R.F.=1)  AT K=  17, I=   1, J=  91

 MAXIMUM STEPSIZE WHICH MEETS STABILITY CRITERION OF THE DISPERSION TERM
 =  4.036    (WHEN MIN. R.F.=1)  AT K=  17, I=   1, J=  90
     1 CALLS TO GCG PACKAGE FOR TRANSPORT TIME STEP 433 IN FLOW TIME STEP   1 STRESS PERIOD   1
     8 TOTAL ITERATIONS
     1 CALLS TO GCG PACKAGE FOR TRANSPORT TIME STEP 433 IN FLOW TIME STEP   1 STRESS PERIOD   1
     8 TOTAL ITERATIONS
 
 SOLVING FOR HEAD 


     2 CALLS TO PCG ROUTINE FOR TIME STEP   1 IN STRESS PERIOD    1
     9 TOTAL ITERATIONS

 MAXIMUM HEAD CHANGE FOR EACH ITERATION (1 INDICATES THE FIRST INNER ITERATION):

    HEAD CHANGE    HEAD CHANGE    HEAD CHANGE    HEAD CHANGE    HEAD CHANGE 
   LAYER,ROW,COL  LAYER,ROW,COL  LAYER,ROW,COL  LAYER,ROW,COL  LAYER,ROW,COL
 ---------------------------------------------------------------------------
  1 -0.1358E-01  0  0.4039E-02  0  0.4362E-02  0 -0.8203E-02  0  0.8486E-02
   ( 15,  1, 86)  ( 17,  1, 89)  (  8,  1, 12)  ( 11,  1, 58)  ( 11,  1, 58)
  0  0.2192E-02  0  0.1191E-02  0  0.6421E-03  1 -0.4475E-03
   ( 11,  1, 68)  ( 11,  1, 53)  ( 11,  1, 60)  ( 11,  1, 62)

 MAXIMUM RESIDUAL FOR EACH ITERATION (1 INDICATES THE FIRST INNER ITERATION):

    RESIDUAL       RESIDUAL       RESIDUAL       RESIDUAL       RESIDUAL    
   LAYER,ROW,COL  LAYER,ROW,COL  LAYER,ROW,COL  LAYER,ROW,COL  LAYER,ROW,COL
 ---------------------------------------------------------------------------
  1 -0.1352E+06  0  0.9580E+05  0  0.9510E+05  0  0.1939E+05  0  -4796.    
   ( 21,  1, 89)  ( 19,  1, 89)  ( 19,  1, 89)  ( 19,  1, 89)  ( 17,  1, 88)
  0  -2810.      0  -2452.      0  -703.7      1  -619.0    
   ( 22,  1, 87)  ( 22,  1, 87)  ( 22,  1, 87)  ( 22,  1, 87)


 FLOW MODEL IS TRANSIENT
 FLOW MODEL CONTAINS CONSTANT-HEAD CELLS


 MAXIMUM STEPSIZE DURING WHICH ANY PARTICLE CANNOT MOVE MORE THAN ONE CELL
 =  13.25    (WHEN MIN. R.F.=1)  AT K=  17, I=   1, J=  90

 MAXIMUM STEPSIZE WHICH MEETS STABILITY CRITERION OF THE ADVECTION TERM
 (FOR PURE FINITE-DIFFERENCE OPTION, MIXELM=0) 
 =  8.014    (WHEN MIN. R.F.=1)  AT K=  16, I=   1, J=  90


 TOTAL NUMBER OF POINT SOURCES/SINKS PRESENT IN THE FLOW MODEL =    30

 MAXIMUM STEPSIZE WHICH MEETS STABILITY CRITERION OF THE SINK & SOURCE TERM
 =  12.20    (WHEN MIN. R.F.=1)  AT K=  17, I=   1, J=  91

 MAXIMUM STEPSIZE WHICH MEETS STABILITY CRITERION OF THE DISPERSION TERM
 =  4.388    (WHEN MIN. R.F.=1)  AT K=  17, I=   1, J=  90
     1 CALLS TO GCG PACKAGE FOR TRANSPORT TIME STEP 434 IN FLOW TIME STEP   1 STRESS PERIOD   1
     9 TOTAL ITERATIONS
     1 CALLS TO GCG PACKAGE FOR TRANSPORT TIME STEP 434 IN FLOW TIME STEP   1 STRESS PERIOD   1
     8 TOTAL ITERATIONS
 
 SOLVING FOR HEAD 


     2 CALLS TO PCG ROUTINE FOR TIME STEP   1 IN STRESS PERIOD    1
     9 TOTAL ITERATIONS

 MAXIMUM HEAD CHANGE FOR EACH ITERATION (1 INDICATES THE FIRST INNER ITERATION):

    HEAD CHANGE    HEAD CHANGE    HEAD CHANGE    HEAD CHANGE    HEAD CHANGE 
   LAYER,ROW,COL  LAYER,ROW,COL  LAYER,ROW,COL  LAYER,ROW,COL  LAYER,ROW,COL
 ---------------------------------------------------------------------------
  1  0.1323E-01  0 -0.3703E-02  0 -0.5450E-02  0  0.5294E-02  0 -0.8750E-02
   ( 15,  1, 86)  ( 17,  1, 89)  (  9,  1, 12)  (  3,  1, 45)  (  9,  1, 51)
  0  0.2015E-02  0 -0.1285E-02  0 -0.9609E-03  1  0.7011E-03
   ( 11,  1, 70)  ( 11,  1, 69)  ( 11,  1, 60)  ( 11,  1, 70)

 MAXIMUM RESIDUAL FOR EACH ITERATION (1 INDICATES THE FIRST INNER ITERATION):

    RESIDUAL       RESIDUAL       RESIDUAL       RESIDUAL       RESIDUAL    
   LAYER,ROW,COL  LAYER,ROW,COL  LAYER,ROW,COL  LAYER,ROW,COL  LAYER,ROW,COL
 ---------------------------------------------------------------------------
  1  0.1351E+06  0 -0.9522E+05  0 -0.6677E+05  0 -0.3690E+05  0  -6147.    
   ( 21,  1, 89)  ( 19,  1, 89)  ( 19,  1, 89)  ( 19,  1, 89)  ( 17,  1, 87)
  0   2878.      0   2449.      0   840.9      1   691.8    
   ( 22,  1, 87)  ( 22,  1, 87)  ( 22,  1, 87)  ( 22,  1, 87)


 FLOW MODEL IS TRANSIENT
 FLOW MODEL CONTAINS CONSTANT-HEAD CELLS


 MAXIMUM STEPSIZE DURING WHICH ANY PARTICLE CANNOT MOVE MORE THAN ONE CELL
 =  12.86    (WHEN MIN. R.F.=1)  AT K=  17, I=   1, J=  90

 MAXIMUM STEPSIZE WHICH MEETS STABILITY CRITERION OF THE ADVECTION TERM
 (FOR PURE FINITE-DIFFERENCE OPTION, MIXELM=0) 
 =  8.037    (WHEN MIN. R.F.=1)  AT K=  16, I=   1, J=  90


 TOTAL NUMBER OF POINT SOURCES/SINKS PRESENT IN THE FLOW MODEL =    30

 MAXIMUM STEPSIZE WHICH MEETS STABILITY CRITERION OF THE SINK & SOURCE TERM
 =  12.20    (WHEN MIN. R.F.=1)  AT K=  17, I=   1, J=  91

 MAXIMUM STEPSIZE WHICH MEETS STABILITY CRITERION OF THE DISPERSION TERM
 =  4.030    (WHEN MIN. R.F.=1)  AT K=  17, I=   1, J=  90
     1 CALLS TO GCG PACKAGE FOR TRANSPORT TIME STEP 435 IN FLOW TIME STEP   1 STRESS PERIOD   1
     8 TOTAL ITERATIONS
  MAXIMUM CONCENTRATION CHANGES FOR EACH ITERATION:
  MAX. CHANGE LAYER,ROW,COL MAX. CHANGE LAYER,ROW,COL MAX. CHANGE LAYER,ROW,COL MAX. CHANGE LAYER,ROW,COL MAX. CHANGE LAYER,ROW,COL
 ------------------------------------------------------------------------------------------------------------------------------------
   0.5260E-01 ( 20,  1, 87)  0.4209E-02 ( 19,  1, 89)  0.2149E-02 ( 17,  1, 86)  0.4817E-03 ( 20,  1, 89)  0.9626E-04 ( 16,  1, 89)
   0.1992E-04 ( 20,  1, 89)  0.1893E-04 ( 16,  1, 90)  0.7468E-06 ( 17,  1, 90)
     1 CALLS TO GCG PACKAGE FOR TRANSPORT TIME STEP 435 IN FLOW TIME STEP   1 STRESS PERIOD   1
     8 TOTAL ITERATIONS
  MAXIMUM CONCENTRATION CHANGES FOR EACH ITERATION:
  MAX. CHANGE LAYER,ROW,COL MAX. CHANGE LAYER,ROW,COL MAX. CHANGE LAYER,ROW,COL MAX. CHANGE LAYER,ROW,COL MAX. CHANGE LAYER,ROW,COL
 ------------------------------------------------------------------------------------------------------------------------------------
   0.6075E-01 ( 20,  1, 87)  0.4906E-02 ( 19,  1, 89)  0.2075E-02 ( 18,  1, 86)  0.4582E-03 ( 23,  1, 87)  0.1170E-03 ( 16,  1, 89)
   0.2496E-04 ( 23,  1, 87)  0.1586E-04 ( 17,  1, 90)  0.8893E-06 ( 17,  1, 90)
 
 SOLVING FOR HEAD 


     2 CALLS TO PCG ROUTINE FOR TIME STEP   1 IN STRESS PERIOD    1
     8 TOTAL ITERATIONS

 MAXIMUM HEAD CHANGE FOR EACH ITERATION (1 INDICATES THE FIRST INNER ITERATION):

    HEAD CHANGE    HEAD CHANGE    HEAD CHANGE    HEAD CHANGE    HEAD CHANGE 
   LAYER,ROW,COL  LAYER,ROW,COL  LAYER,ROW,COL  LAYER,ROW,COL  LAYER,ROW,COL
 ---------------------------------------------------------------------------
  1 -0.1351E-01  0  0.3739E-02  0  0.3559E-02  0 -0.1283E-01  0  0.1298E-01
   ( 15,  1, 86)  ( 17,  1, 89)  (  8,  1, 12)  ( 11,  1, 57)  ( 11,  1, 57)
  0  0.2350E-02  0  0.9646E-03  1 -0.6245E-03
   ( 11,  1, 68)  ( 11,  1, 51)  ( 11,  1, 50)

 MAXIMUM RESIDUAL FOR EACH ITERATION (1 INDICATES THE FIRST INNER ITERATION):

    RESIDUAL       RESIDUAL       RESIDUAL       RESIDUAL       RESIDUAL    
   LAYER,ROW,COL  LAYER,ROW,COL  LAYER,ROW,COL  LAYER,ROW,COL  LAYER,ROW,COL
 ---------------------------------------------------------------------------
  1 -0.1348E+06  0  0.9484E+05  0  0.9399E+05  0  0.2324E+05  0   5085.    
   ( 21,  1, 89)  ( 19,  1, 89)  ( 19,  1, 89)  ( 19,  1, 89)  ( 17,  1, 87)
  0  -2807.      0  -2441.      1  -2082.    
   ( 22,  1, 87)  ( 22,  1, 87)  ( 22,  1, 87)


 FLOW MODEL IS TRANSIENT
 FLOW MODEL CONTAINS CONSTANT-HEAD CELLS


 MAXIMUM STEPSIZE DURING WHICH ANY PARTICLE CANNOT MOVE MORE THAN ONE CELL
 =  13.23    (WHEN MIN. R.F.=1)  AT K=  17, I=   1, J=  90

 MAXIMUM STEPSIZE WHICH MEETS STABILITY CRITERION OF THE ADVECTION TERM
 (FOR PURE FINITE-DIFFERENCE OPTION, MIXELM=0) 
 =  8.010    (WHEN MIN. R.F.=1)  AT K=  16, I=   1, J=  90


 TOTAL NUMBER OF POINT SOURCES/SINKS PRESENT IN THE FLOW MODEL =    30

 MAXIMUM STEPSIZE WHICH MEETS STABILITY CRITERION OF THE SINK & SOURCE TERM
 =  12.17    (WHEN MIN. R.F.=1)  AT K=  17, I=   1, J=  91

 MAXIMUM STEPSIZE WHICH MEETS STABILITY CRITERION OF THE DISPERSION TERM
 =  4.369    (WHEN MIN. R.F.=1)  AT K=  17, I=   1, J=  90
     1 CALLS TO GCG PACKAGE FOR TRANSPORT TIME STEP 436 IN FLOW TIME STEP   1 STRESS PERIOD   1
    10 TOTAL ITERATIONS
     1 CALLS TO GCG PACKAGE FOR TRANSPORT TIME STEP 436 IN FLOW TIME STEP   1 STRESS PERIOD   1
     8 TOTAL ITERATIONS
 
 SOLVING FOR HEAD 


     2 CALLS TO PCG ROUTINE FOR TIME STEP   1 IN STRESS PERIOD    1
     9 TOTAL ITERATIONS

 MAXIMUM HEAD CHANGE FOR EACH ITERATION (1 INDICATES THE FIRST INNER ITERATION):

    HEAD CHANGE    HEAD CHANGE    HEAD CHANGE    HEAD CHANGE    HEAD CHANGE 
   LAYER,ROW,COL  LAYER,ROW,COL  LAYER,ROW,COL  LAYER,ROW,COL  LAYER,ROW,COL
 ---------------------------------------------------------------------------
  1  0.1384E-01  0 -0.6462E-02  0 -0.3560E-02  0  0.1019E-01  0  0.6960E-02
   ( 15,  1, 86)  ( 11,  1, 49)  (  7,  1, 12)  ( 11,  1, 49)  (  7,  1, 52)
  0 -0.2851E-02  0  0.1410E-02  0 -0.7221E-03  1  0.6557E-03
   ( 11,  1, 50)  ( 11,  1, 50)  ( 11,  1, 56)  ( 11,  1, 56)

 MAXIMUM RESIDUAL FOR EACH ITERATION (1 INDICATES THE FIRST INNER ITERATION):

    RESIDUAL       RESIDUAL       RESIDUAL       RESIDUAL       RESIDUAL    
   LAYER,ROW,COL  LAYER,ROW,COL  LAYER,ROW,COL  LAYER,ROW,COL  LAYER,ROW,COL
 ---------------------------------------------------------------------------
  1  0.1337E+06  0 -0.9462E+05  0 -0.9374E+05  0 -0.7240E+05  0  -5901.    
   ( 21,  1, 89)  ( 19,  1, 89)  ( 19,  1, 89)  ( 19,  1, 89)  ( 17,  1, 87)
  0   2797.      0   2628.      0   1009.      1   896.8    
   ( 22,  1, 87)  ( 22,  1, 87)  ( 22,  1, 87)  ( 22,  1, 87)


 FLOW MODEL IS TRANSIENT
 FLOW MODEL CONTAINS CONSTANT-HEAD CELLS


 MAXIMUM STEPSIZE DURING WHICH ANY PARTICLE CANNOT MOVE MORE THAN ONE CELL
 =  12.91    (WHEN MIN. R.F.=1)  AT K=  17, I=   1, J=  90

 MAXIMUM STEPSIZE WHICH MEETS STABILITY CRITERION OF THE ADVECTION TERM
 (FOR PURE FINITE-DIFFERENCE OPTION, MIXELM=0) 
 =  8.060    (WHEN MIN. R.F.=1)  AT K=  16, I=   1, J=  90


 TOTAL NUMBER OF POINT SOURCES/SINKS PRESENT IN THE FLOW MODEL =    30

 MAXIMUM STEPSIZE WHICH MEETS STABILITY CRITERION OF THE SINK & SOURCE TERM
 =  12.28    (WHEN MIN. R.F.=1)  AT K=  17, I=   1, J=  91

 MAXIMUM STEPSIZE WHICH MEETS STABILITY CRITERION OF THE DISPERSION TERM
 =  4.049    (WHEN MIN. R.F.=1)  AT K=  17, I=   1, J=  90
     1 CALLS TO GCG PACKAGE FOR TRANSPORT TIME STEP 437 IN FLOW TIME STEP   1 STRESS PERIOD   1
     8 TOTAL ITERATIONS
     1 CALLS TO GCG PACKAGE FOR TRANSPORT TIME STEP 437 IN FLOW TIME STEP   1 STRESS PERIOD   1
     8 TOTAL ITERATIONS
 
 SOLVING FOR HEAD 


     2 CALLS TO PCG ROUTINE FOR TIME STEP   1 IN STRESS PERIOD    1
     9 TOTAL ITERATIONS

 MAXIMUM HEAD CHANGE FOR EACH ITERATION (1 INDICATES THE FIRST INNER ITERATION):

    HEAD CHANGE    HEAD CHANGE    HEAD CHANGE    HEAD CHANGE    HEAD CHANGE 
   LAYER,ROW,COL  LAYER,ROW,COL  LAYER,ROW,COL  LAYER,ROW,COL  LAYER,ROW,COL
 ---------------------------------------------------------------------------
  1 -0.1361E-01  0  0.4019E-02  0  0.3694E-02  0 -0.9653E-02  0  0.1021E-01
   ( 15,  1, 86)  ( 17,  1, 89)  (  8,  1, 12)  ( 11,  1, 55)  ( 11,  1, 55)
  0 -0.2209E-02  0  0.1101E-02  0  0.6924E-03  1 -0.7544E-03
   ( 11,  1, 52)  ( 11,  1, 62)  ( 11,  1, 70)  ( 11,  1, 70)

 MAXIMUM RESIDUAL FOR EACH ITERATION (1 INDICATES THE FIRST INNER ITERATION):

    RESIDUAL       RESIDUAL       RESIDUAL       RESIDUAL       RESIDUAL    
   LAYER,ROW,COL  LAYER,ROW,COL  LAYER,ROW,COL  LAYER,ROW,COL  LAYER,ROW,COL
 ---------------------------------------------------------------------------
  1 -0.1360E+06  0  0.9683E+05  0  0.9598E+05  0  0.2021E+05  0   4900.    
   ( 21,  1, 89)  ( 19,  1, 89)  ( 19,  1, 89)  ( 19,  1, 89)  ( 17,  1, 87)
  0  -2840.      0  -2310.      0  -682.3      1  -574.4    
   ( 22,  1, 87)  ( 22,  1, 87)  ( 22,  1, 87)  ( 22,  1, 87)


 FLOW MODEL IS TRANSIENT
 FLOW MODEL CONTAINS CONSTANT-HEAD CELLS


 MAXIMUM STEPSIZE DURING WHICH ANY PARTICLE CANNOT MOVE MORE THAN ONE CELL
 =  13.24    (WHEN MIN. R.F.=1)  AT K=  17, I=   1, J=  90

 MAXIMUM STEPSIZE WHICH MEETS STABILITY CRITERION OF THE ADVECTION TERM
 (FOR PURE FINITE-DIFFERENCE OPTION, MIXELM=0) 
 =  8.009    (WHEN MIN. R.F.=1)  AT K=  16, I=   1, J=  90


 TOTAL NUMBER OF POINT SOURCES/SINKS PRESENT IN THE FLOW MODEL =    30

 MAXIMUM STEPSIZE WHICH MEETS STABILITY CRITERION OF THE SINK & SOURCE TERM
 =  12.20    (WHEN MIN. R.F.=1)  AT K=  17, I=   1, J=  91

 MAXIMUM STEPSIZE WHICH MEETS STABILITY CRITERION OF THE DISPERSION TERM
 =  4.376    (WHEN MIN. R.F.=1)  AT K=  17, I=   1, J=  90
     1 CALLS TO GCG PACKAGE FOR TRANSPORT TIME STEP 438 IN FLOW TIME STEP   1 STRESS PERIOD   1
     9 TOTAL ITERATIONS
     1 CALLS TO GCG PACKAGE FOR TRANSPORT TIME STEP 438 IN FLOW TIME STEP   1 STRESS PERIOD   1
     8 TOTAL ITERATIONS
 
 SOLVING FOR HEAD 


     2 CALLS TO PCG ROUTINE FOR TIME STEP   1 IN STRESS PERIOD    1
     9 TOTAL ITERATIONS

 MAXIMUM HEAD CHANGE FOR EACH ITERATION (1 INDICATES THE FIRST INNER ITERATION):

    HEAD CHANGE    HEAD CHANGE    HEAD CHANGE    HEAD CHANGE    HEAD CHANGE 
   LAYER,ROW,COL  LAYER,ROW,COL  LAYER,ROW,COL  LAYER,ROW,COL  LAYER,ROW,COL
 ---------------------------------------------------------------------------
  1  0.1331E-01  0 -0.3674E-02  0 -0.4607E-02  0  0.8006E-02  0 -0.9638E-02
   ( 15,  1, 86)  ( 17,  1, 89)  (  8,  1, 12)  ( 11,  1, 69)  ( 11,  1, 69)
  0  0.2060E-02  0 -0.1434E-02  0 -0.9235E-03  1  0.7770E-03
   ( 11,  1, 64)  ( 11,  1, 62)  ( 11,  1, 67)  ( 11,  1, 66)

 MAXIMUM RESIDUAL FOR EACH ITERATION (1 INDICATES THE FIRST INNER ITERATION):

    RESIDUAL       RESIDUAL       RESIDUAL       RESIDUAL       RESIDUAL    
   LAYER,ROW,COL  LAYER,ROW,COL  LAYER,ROW,COL  LAYER,ROW,COL  LAYER,ROW,COL
 ---------------------------------------------------------------------------
  1  0.1352E+06  0 -0.9524E+05  0 -0.8124E+05  0 -0.2531E+05  0  -5637.    
   ( 21,  1, 89)  ( 19,  1, 89)  ( 19,  1, 89)  ( 19,  1, 89)  ( 17,  1, 87)
  0   2845.      0   2581.      0   875.6      1   747.6    
   ( 22,  1, 87)  ( 22,  1, 87)  ( 22,  1, 87)  ( 22,  1, 87)


 FLOW MODEL IS TRANSIENT
 FLOW MODEL CONTAINS CONSTANT-HEAD CELLS


 MAXIMUM STEPSIZE DURING WHICH ANY PARTICLE CANNOT MOVE MORE THAN ONE CELL
 =  12.85    (WHEN MIN. R.F.=1)  AT K=  17, I=   1, J=  90

 MAXIMUM STEPSIZE WHICH MEETS STABILITY CRITERION OF THE ADVECTION TERM
 (FOR PURE FINITE-DIFFERENCE OPTION, MIXELM=0) 
 =  8.033    (WHEN MIN. R.F.=1)  AT K=  16, I=   1, J=  90


 TOTAL NUMBER OF POINT SOURCES/SINKS PRESENT IN THE FLOW MODEL =    30

 MAXIMUM STEPSIZE WHICH MEETS STABILITY CRITERION OF THE SINK & SOURCE TERM
 =  12.20    (WHEN MIN. R.F.=1)  AT K=  17, I=   1, J=  91

 MAXIMUM STEPSIZE WHICH MEETS STABILITY CRITERION OF THE DISPERSION TERM
 =  4.026    (WHEN MIN. R.F.=1)  AT K=  17, I=   1, J=  90
     1 CALLS TO GCG PACKAGE FOR TRANSPORT TIME STEP 439 IN FLOW TIME STEP   1 STRESS PERIOD   1
     8 TOTAL ITERATIONS
     1 CALLS TO GCG PACKAGE FOR TRANSPORT TIME STEP 439 IN FLOW TIME STEP   1 STRESS PERIOD   1
     8 TOTAL ITERATIONS
 
 SOLVING FOR HEAD 


     2 CALLS TO PCG ROUTINE FOR TIME STEP   1 IN STRESS PERIOD    1
     8 TOTAL ITERATIONS

 MAXIMUM HEAD CHANGE FOR EACH ITERATION (1 INDICATES THE FIRST INNER ITERATION):

    HEAD CHANGE    HEAD CHANGE    HEAD CHANGE    HEAD CHANGE    HEAD CHANGE 
   LAYER,ROW,COL  LAYER,ROW,COL  LAYER,ROW,COL  LAYER,ROW,COL  LAYER,ROW,COL
 ---------------------------------------------------------------------------
  1 -0.1345E-01  0  0.3709E-02  0  0.3192E-02  0  0.1223E-01  0 -0.1271E-01
   ( 15,  1, 86)  ( 17,  1, 89)  (  8,  1, 12)  ( 11,  1, 58)  ( 11,  1, 58)
  0 -0.1446E-02  0 -0.7723E-03  1  0.5947E-03
   ( 11,  1, 39)  ( 11,  1, 66)  ( 11,  1, 66)

 MAXIMUM RESIDUAL FOR EACH ITERATION (1 INDICATES THE FIRST INNER ITERATION):

    RESIDUAL       RESIDUAL       RESIDUAL       RESIDUAL       RESIDUAL    
   LAYER,ROW,COL  LAYER,ROW,COL  LAYER,ROW,COL  LAYER,ROW,COL  LAYER,ROW,COL
 ---------------------------------------------------------------------------
  1 -0.1334E+06  0  0.9364E+05  0  0.9271E+05  0  0.2665E+05  0   5345.    
   ( 21,  1, 89)  ( 19,  1, 89)  ( 19,  1, 89)  ( 19,  1, 89)  ( 17,  1, 87)
  0  -2820.      0  -2539.      1  -2040.    
   ( 22,  1, 87)  ( 22,  1, 87)  ( 22,  1, 87)


 FLOW MODEL IS TRANSIENT
 FLOW MODEL CONTAINS CONSTANT-HEAD CELLS


 MAXIMUM STEPSIZE DURING WHICH ANY PARTICLE CANNOT MOVE MORE THAN ONE CELL
 =  13.22    (WHEN MIN. R.F.=1)  AT K=  17, I=   1, J=  90

 MAXIMUM STEPSIZE WHICH MEETS STABILITY CRITERION OF THE ADVECTION TERM
 (FOR PURE FINITE-DIFFERENCE OPTION, MIXELM=0) 
 =  8.006    (WHEN MIN. R.F.=1)  AT K=  16, I=   1, J=  90


 TOTAL NUMBER OF POINT SOURCES/SINKS PRESENT IN THE FLOW MODEL =    30

 MAXIMUM STEPSIZE WHICH MEETS STABILITY CRITERION OF THE SINK & SOURCE TERM
 =  12.17    (WHEN MIN. R.F.=1)  AT K=  17, I=   1, J=  91

 MAXIMUM STEPSIZE WHICH MEETS STABILITY CRITERION OF THE DISPERSION TERM
 =  4.362    (WHEN MIN. R.F.=1)  AT K=  17, I=   1, J=  90
     1 CALLS TO GCG PACKAGE FOR TRANSPORT TIME STEP 440 IN FLOW TIME STEP   1 STRESS PERIOD   1
     8 TOTAL ITERATIONS
  MAXIMUM CONCENTRATION CHANGES FOR EACH ITERATION:
  MAX. CHANGE LAYER,ROW,COL MAX. CHANGE LAYER,ROW,COL MAX. CHANGE LAYER,ROW,COL MAX. CHANGE LAYER,ROW,COL MAX. CHANGE LAYER,ROW,COL
 ------------------------------------------------------------------------------------------------------------------------------------
   0.4892E-01 ( 20,  1, 87)  0.3324E-02 ( 19,  1, 87)  0.2185E-02 ( 18,  1, 87)  0.2170E-03 ( 16,  1, 88)  0.1456E-03 ( 16,  1, 89)
   0.2782E-04 ( 16,  1, 90)  0.3264E-05 ( 21,  1, 78)  0.4815E-06 ( 16,  1, 89)
     1 CALLS TO GCG PACKAGE FOR TRANSPORT TIME STEP 440 IN FLOW TIME STEP   1 STRESS PERIOD   1
     8 TOTAL ITERATIONS
  MAXIMUM CONCENTRATION CHANGES FOR EACH ITERATION:
  MAX. CHANGE LAYER,ROW,COL MAX. CHANGE LAYER,ROW,COL MAX. CHANGE LAYER,ROW,COL MAX. CHANGE LAYER,ROW,COL MAX. CHANGE LAYER,ROW,COL
 ------------------------------------------------------------------------------------------------------------------------------------
   0.5611E-01 ( 20,  1, 87)  0.4246E-02 ( 19,  1, 87)  0.2345E-02 ( 18,  1, 87)  0.3061E-03 ( 18,  1, 87)  0.1364E-03 ( 16,  1, 89)
   0.3769E-04 ( 17,  1, 90)  0.5860E-05 ( 17,  1, 90)  0.6077E-06 ( 16,  1, 89)



 >>>>>>>>>>>>>>>>>>>>>>>>>>>>>>>>>>>>>>>>>>>>>>>>>>>>>>>FOR COMPONENT NO. 01<<<<<<<<<<<<<<<<<<<<<<<<<<<<<<<<<<<<<<<<<<<<<<<<<<<<<<<


                                            -------------------------------------------
                                                      TRANSPORT STEP NO.  440
                                            -------------------------------------------

 TOTAL ELAPSED TIME SINCE BEGINNING OF SIMULATION =   22000.00    D   
 .....................................................................

                     CUMMULATIVE MASS BUDGETS AT END OF TRANSPORT STEP  440, TIME STEP    1, STRESS PERIOD    1
                     ------------------------------------------------------------------------------------------

                                                             IN                           OUT
                                                      ----------------             ----------------
                               CONSTANT CONCENTRATION:    0.000000                    0.000000    
                                        CONSTANT HEAD:   0.8706549E+09              -0.8704539E+09
                                                WELLS:    0.000000                    0.000000    
                                             RECHARGE:    0.000000                    0.000000    
                               1ST/0TH ORDER REACTION:    0.000000                    0.000000    
                                MASS STORAGE (SOLUTE):   0.1217260E+09              -0.1219272E+09
                            ---------------------------------------------------------------------------
                                              [TOTAL]:   0.9923819E+09 KG           -0.9923820E+09 KG  

                                                          NET (IN - OUT):   -127.3119    
                                                   DISCREPANCY (PERCENT):  -0.1282892E-04



 >>>>>>>>>>>>>>>>>>>>>>>>>>>>>>>>>>>>>>>>>>>>>>>>>>>>>>>FOR COMPONENT NO. 02<<<<<<<<<<<<<<<<<<<<<<<<<<<<<<<<<<<<<<<<<<<<<<<<<<<<<<<


                                            -------------------------------------------
                                                      TRANSPORT STEP NO.  440
                                            -------------------------------------------

 TOTAL ELAPSED TIME SINCE BEGINNING OF SIMULATION =   22000.00    D   
 .....................................................................

                     CUMMULATIVE MASS BUDGETS AT END OF TRANSPORT STEP  440, TIME STEP    1, STRESS PERIOD    1
                     ------------------------------------------------------------------------------------------

                                                             IN                           OUT
                                                      ----------------             ----------------
                               CONSTANT CONCENTRATION:    0.000000                    0.000000    
                                        CONSTANT HEAD:    0.000000                  -0.1206348E+12
                                                WELLS:    0.000000                    0.000000    
                                             RECHARGE:    0.000000                    0.000000    
                               1ST/0TH ORDER REACTION:   0.3641000E+12                0.000000    
                                MASS STORAGE (SOLUTE):   0.3618975E+11              -0.2796550E+12
                            ---------------------------------------------------------------------------
                                              [TOTAL]:   0.4002903E+12 KG           -0.4002904E+12 KG  

                                                          NET (IN - OUT):   -39091.02    
                                                   DISCREPANCY (PERCENT):  -0.9765667E-05
 
 SOLVING FOR HEAD 


     2 CALLS TO PCG ROUTINE FOR TIME STEP   1 IN STRESS PERIOD    1
     9 TOTAL ITERATIONS

 MAXIMUM HEAD CHANGE FOR EACH ITERATION (1 INDICATES THE FIRST INNER ITERATION):

    HEAD CHANGE    HEAD CHANGE    HEAD CHANGE    HEAD CHANGE    HEAD CHANGE 
   LAYER,ROW,COL  LAYER,ROW,COL  LAYER,ROW,COL  LAYER,ROW,COL  LAYER,ROW,COL
 ---------------------------------------------------------------------------
  1  0.1380E-01  0  0.7068E-02  0 -0.3394E-02  0 -0.8124E-02  0  0.5865E-02
   ( 15,  1, 86)  (  5,  1, 42)  (  7,  1, 12)  ( 11,  1, 67)  (  8,  1, 51)
  0 -0.4415E-02  0  0.1522E-02  0 -0.8604E-03  1  0.6745E-03
   ( 11,  1, 58)  ( 11,  1, 58)  ( 11,  1, 64)  ( 11,  1, 64)

 MAXIMUM RESIDUAL FOR EACH ITERATION (1 INDICATES THE FIRST INNER ITERATION):

    RESIDUAL       RESIDUAL       RESIDUAL       RESIDUAL       RESIDUAL    
   LAYER,ROW,COL  LAYER,ROW,COL  LAYER,ROW,COL  LAYER,ROW,COL  LAYER,ROW,COL
 ---------------------------------------------------------------------------
  1  0.1333E+06  0 -0.9426E+05  0 -0.9331E+05  0 -0.7694E+05  0  -6176.    
   ( 21,  1, 89)  ( 19,  1, 89)  ( 19,  1, 89)  ( 19,  1, 89)  ( 17,  1, 87)
  0   2923.      0   2627.      0   996.0      1   881.5    
   ( 17,  1, 88)  ( 22,  1, 87)  ( 22,  1, 87)  ( 22,  1, 87)


 FLOW MODEL IS TRANSIENT
 FLOW MODEL CONTAINS CONSTANT-HEAD CELLS


 MAXIMUM STEPSIZE DURING WHICH ANY PARTICLE CANNOT MOVE MORE THAN ONE CELL
 =  12.91    (WHEN MIN. R.F.=1)  AT K=  17, I=   1, J=  90

 MAXIMUM STEPSIZE WHICH MEETS STABILITY CRITERION OF THE ADVECTION TERM
 (FOR PURE FINITE-DIFFERENCE OPTION, MIXELM=0) 
 =  8.059    (WHEN MIN. R.F.=1)  AT K=  16, I=   1, J=  90


 TOTAL NUMBER OF POINT SOURCES/SINKS PRESENT IN THE FLOW MODEL =    30

 MAXIMUM STEPSIZE WHICH MEETS STABILITY CRITERION OF THE SINK & SOURCE TERM
 =  12.28    (WHEN MIN. R.F.=1)  AT K=  17, I=   1, J=  91

 MAXIMUM STEPSIZE WHICH MEETS STABILITY CRITERION OF THE DISPERSION TERM
 =  4.049    (WHEN MIN. R.F.=1)  AT K=  17, I=   1, J=  90
     1 CALLS TO GCG PACKAGE FOR TRANSPORT TIME STEP 441 IN FLOW TIME STEP   1 STRESS PERIOD   1
     8 TOTAL ITERATIONS
     1 CALLS TO GCG PACKAGE FOR TRANSPORT TIME STEP 441 IN FLOW TIME STEP   1 STRESS PERIOD   1
     8 TOTAL ITERATIONS
 
 SOLVING FOR HEAD 


     2 CALLS TO PCG ROUTINE FOR TIME STEP   1 IN STRESS PERIOD    1
     8 TOTAL ITERATIONS

 MAXIMUM HEAD CHANGE FOR EACH ITERATION (1 INDICATES THE FIRST INNER ITERATION):

    HEAD CHANGE    HEAD CHANGE    HEAD CHANGE    HEAD CHANGE    HEAD CHANGE 
   LAYER,ROW,COL  LAYER,ROW,COL  LAYER,ROW,COL  LAYER,ROW,COL  LAYER,ROW,COL
 ---------------------------------------------------------------------------
  1 -0.1360E-01  0  0.3990E-02  0  0.3437E-02  0  0.7893E-02  0 -0.9270E-02
   ( 15,  1, 86)  ( 17,  1, 89)  (  8,  1, 12)  ( 11,  1, 70)  ( 11,  1, 69)
  0 -0.1896E-02  0  0.9083E-03  1  0.8232E-03
   ( 11,  1, 52)  ( 11,  1, 70)  ( 11,  1, 63)

 MAXIMUM RESIDUAL FOR EACH ITERATION (1 INDICATES THE FIRST INNER ITERATION):

    RESIDUAL       RESIDUAL       RESIDUAL       RESIDUAL       RESIDUAL    
   LAYER,ROW,COL  LAYER,ROW,COL  LAYER,ROW,COL  LAYER,ROW,COL  LAYER,ROW,COL
 ---------------------------------------------------------------------------
  1 -0.1352E+06  0  0.9614E+05  0  0.9524E+05  0  0.2026E+05  0   4799.    
   ( 21,  1, 89)  ( 19,  1, 89)  ( 19,  1, 89)  ( 19,  1, 89)  ( 17,  1, 87)
  0  -2835.      0  -2426.      1  -2021.    
   ( 22,  1, 87)  ( 22,  1, 87)  ( 22,  1, 87)


 FLOW MODEL IS TRANSIENT
 FLOW MODEL CONTAINS CONSTANT-HEAD CELLS


 MAXIMUM STEPSIZE DURING WHICH ANY PARTICLE CANNOT MOVE MORE THAN ONE CELL
 =  13.24    (WHEN MIN. R.F.=1)  AT K=  17, I=   1, J=  90

 MAXIMUM STEPSIZE WHICH MEETS STABILITY CRITERION OF THE ADVECTION TERM
 (FOR PURE FINITE-DIFFERENCE OPTION, MIXELM=0) 
 =  8.013    (WHEN MIN. R.F.=1)  AT K=  16, I=   1, J=  90


 TOTAL NUMBER OF POINT SOURCES/SINKS PRESENT IN THE FLOW MODEL =    30

 MAXIMUM STEPSIZE WHICH MEETS STABILITY CRITERION OF THE SINK & SOURCE TERM
 =  12.20    (WHEN MIN. R.F.=1)  AT K=  17, I=   1, J=  91

 MAXIMUM STEPSIZE WHICH MEETS STABILITY CRITERION OF THE DISPERSION TERM
 =  4.377    (WHEN MIN. R.F.=1)  AT K=  17, I=   1, J=  90
     1 CALLS TO GCG PACKAGE FOR TRANSPORT TIME STEP 442 IN FLOW TIME STEP   1 STRESS PERIOD   1
    10 TOTAL ITERATIONS
     1 CALLS TO GCG PACKAGE FOR TRANSPORT TIME STEP 442 IN FLOW TIME STEP   1 STRESS PERIOD   1
     8 TOTAL ITERATIONS
 
 SOLVING FOR HEAD 


     2 CALLS TO PCG ROUTINE FOR TIME STEP   1 IN STRESS PERIOD    1
     9 TOTAL ITERATIONS

 MAXIMUM HEAD CHANGE FOR EACH ITERATION (1 INDICATES THE FIRST INNER ITERATION):

    HEAD CHANGE    HEAD CHANGE    HEAD CHANGE    HEAD CHANGE    HEAD CHANGE 
   LAYER,ROW,COL  LAYER,ROW,COL  LAYER,ROW,COL  LAYER,ROW,COL  LAYER,ROW,COL
 ---------------------------------------------------------------------------
  1  0.1366E-01  0  0.6384E-02  0 -0.3358E-02  0 -0.1541E-01  0  0.1281E-01
   ( 15,  1, 86)  ( 11,  1, 63)  (  8,  1, 12)  ( 11,  1, 63)  ( 11,  1, 64)
  0 -0.3925E-02  0 -0.1230E-02  0 -0.6590E-03  1  0.4924E-03
   ( 11,  1, 69)  ( 11,  1, 49)  ( 11,  1, 64)  ( 11,  1, 64)

 MAXIMUM RESIDUAL FOR EACH ITERATION (1 INDICATES THE FIRST INNER ITERATION):

    RESIDUAL       RESIDUAL       RESIDUAL       RESIDUAL       RESIDUAL    
   LAYER,ROW,COL  LAYER,ROW,COL  LAYER,ROW,COL  LAYER,ROW,COL  LAYER,ROW,COL
 ---------------------------------------------------------------------------
  1  0.1364E+06  0 -0.9707E+05  0 -0.9612E+05  0 -0.5660E+05  0  -5531.    
   ( 21,  1, 89)  ( 19,  1, 89)  ( 19,  1, 89)  ( 19,  1, 89)  ( 17,  1, 87)
  0   2872.      0   2573.      0   1592.      1   1424.    
   ( 17,  1, 88)  ( 22,  1, 87)  ( 22,  1, 87)  ( 22,  1, 87)


 FLOW MODEL IS TRANSIENT
 FLOW MODEL CONTAINS CONSTANT-HEAD CELLS


 MAXIMUM STEPSIZE DURING WHICH ANY PARTICLE CANNOT MOVE MORE THAN ONE CELL
 =  12.89    (WHEN MIN. R.F.=1)  AT K=  17, I=   1, J=  90

 MAXIMUM STEPSIZE WHICH MEETS STABILITY CRITERION OF THE ADVECTION TERM
 (FOR PURE FINITE-DIFFERENCE OPTION, MIXELM=0) 
 =  8.053    (WHEN MIN. R.F.=1)  AT K=  16, I=   1, J=  90


 TOTAL NUMBER OF POINT SOURCES/SINKS PRESENT IN THE FLOW MODEL =    30

 MAXIMUM STEPSIZE WHICH MEETS STABILITY CRITERION OF THE SINK & SOURCE TERM
 =  12.26    (WHEN MIN. R.F.=1)  AT K=  17, I=   1, J=  91

 MAXIMUM STEPSIZE WHICH MEETS STABILITY CRITERION OF THE DISPERSION TERM
 =  4.038    (WHEN MIN. R.F.=1)  AT K=  17, I=   1, J=  90
     1 CALLS TO GCG PACKAGE FOR TRANSPORT TIME STEP 443 IN FLOW TIME STEP   1 STRESS PERIOD   1
     8 TOTAL ITERATIONS
     1 CALLS TO GCG PACKAGE FOR TRANSPORT TIME STEP 443 IN FLOW TIME STEP   1 STRESS PERIOD   1
     8 TOTAL ITERATIONS
 
 SOLVING FOR HEAD 


     2 CALLS TO PCG ROUTINE FOR TIME STEP   1 IN STRESS PERIOD    1
     8 TOTAL ITERATIONS

 MAXIMUM HEAD CHANGE FOR EACH ITERATION (1 INDICATES THE FIRST INNER ITERATION):

    HEAD CHANGE    HEAD CHANGE    HEAD CHANGE    HEAD CHANGE    HEAD CHANGE 
   LAYER,ROW,COL  LAYER,ROW,COL  LAYER,ROW,COL  LAYER,ROW,COL  LAYER,ROW,COL
 ---------------------------------------------------------------------------
  1 -0.1376E-01  0 -0.5207E-02  0  0.5378E-02  0 -0.8408E-02  0  0.8578E-02
   ( 15,  1, 86)  (  8,  1, 12)  (  8,  1, 12)  (  6,  1, 44)  (  9,  1, 45)
  0  0.1353E-02  0 -0.9576E-03  1  0.8002E-03
   ( 11,  1, 50)  ( 11,  1, 51)  ( 11,  1, 51)

 MAXIMUM RESIDUAL FOR EACH ITERATION (1 INDICATES THE FIRST INNER ITERATION):

    RESIDUAL       RESIDUAL       RESIDUAL       RESIDUAL       RESIDUAL    
   LAYER,ROW,COL  LAYER,ROW,COL  LAYER,ROW,COL  LAYER,ROW,COL  LAYER,ROW,COL
 ---------------------------------------------------------------------------
  1 -0.1363E+06  0  0.9663E+05  0  0.9612E+05  0  0.2838E+05  0   5554.    
   ( 21,  1, 89)  ( 19,  1, 89)  ( 19,  1, 89)  ( 19,  1, 89)  ( 17,  1, 87)
  0  -2854.      0  -2541.      1  -2068.    
   ( 22,  1, 87)  ( 22,  1, 87)  ( 22,  1, 87)


 FLOW MODEL IS TRANSIENT
 FLOW MODEL CONTAINS CONSTANT-HEAD CELLS


 MAXIMUM STEPSIZE DURING WHICH ANY PARTICLE CANNOT MOVE MORE THAN ONE CELL
 =  13.23    (WHEN MIN. R.F.=1)  AT K=  17, I=   1, J=  90

 MAXIMUM STEPSIZE WHICH MEETS STABILITY CRITERION OF THE ADVECTION TERM
 (FOR PURE FINITE-DIFFERENCE OPTION, MIXELM=0) 
 =  8.007    (WHEN MIN. R.F.=1)  AT K=  16, I=   1, J=  90


 TOTAL NUMBER OF POINT SOURCES/SINKS PRESENT IN THE FLOW MODEL =    30

 MAXIMUM STEPSIZE WHICH MEETS STABILITY CRITERION OF THE SINK & SOURCE TERM
 =  12.17    (WHEN MIN. R.F.=1)  AT K=  17, I=   1, J=  91

 MAXIMUM STEPSIZE WHICH MEETS STABILITY CRITERION OF THE DISPERSION TERM
 =  4.378    (WHEN MIN. R.F.=1)  AT K=  17, I=   1, J=  90
     1 CALLS TO GCG PACKAGE FOR TRANSPORT TIME STEP 444 IN FLOW TIME STEP   1 STRESS PERIOD   1
     7 TOTAL ITERATIONS
     1 CALLS TO GCG PACKAGE FOR TRANSPORT TIME STEP 444 IN FLOW TIME STEP   1 STRESS PERIOD   1
     8 TOTAL ITERATIONS
 
 SOLVING FOR HEAD 


     2 CALLS TO PCG ROUTINE FOR TIME STEP   1 IN STRESS PERIOD    1
     9 TOTAL ITERATIONS

 MAXIMUM HEAD CHANGE FOR EACH ITERATION (1 INDICATES THE FIRST INNER ITERATION):

    HEAD CHANGE    HEAD CHANGE    HEAD CHANGE    HEAD CHANGE    HEAD CHANGE 
   LAYER,ROW,COL  LAYER,ROW,COL  LAYER,ROW,COL  LAYER,ROW,COL  LAYER,ROW,COL
 ---------------------------------------------------------------------------
  1  0.1368E-01  0  0.8754E-02  0 -0.3616E-02  0 -0.1444E-01  0  0.1018E-01
   ( 15,  1, 86)  ( 11,  1, 51)  (  8,  1, 12)  ( 11,  1, 51)  ( 11,  1, 51)
  0  0.2624E-02  0 -0.1043E-02  0 -0.9386E-03  1  0.7873E-03
   (  6,  1, 44)  (  8,  1, 44)  ( 11,  1, 63)  ( 11,  1, 63)

 MAXIMUM RESIDUAL FOR EACH ITERATION (1 INDICATES THE FIRST INNER ITERATION):

    RESIDUAL       RESIDUAL       RESIDUAL       RESIDUAL       RESIDUAL    
   LAYER,ROW,COL  LAYER,ROW,COL  LAYER,ROW,COL  LAYER,ROW,COL  LAYER,ROW,COL
 ---------------------------------------------------------------------------
  1  0.1374E+06  0 -0.9833E+05  0 -0.9739E+05  0 -0.7352E+05  0   6045.    
   ( 21,  1, 89)  ( 19,  1, 89)  ( 19,  1, 89)  ( 19,  1, 89)  ( 17,  1, 88)
  0   3057.      0   2561.      0   1121.      1   988.6    
   ( 17,  1, 88)  ( 22,  1, 87)  ( 22,  1, 87)  ( 22,  1, 87)


 FLOW MODEL IS TRANSIENT
 FLOW MODEL CONTAINS CONSTANT-HEAD CELLS


 MAXIMUM STEPSIZE DURING WHICH ANY PARTICLE CANNOT MOVE MORE THAN ONE CELL
 =  12.88    (WHEN MIN. R.F.=1)  AT K=  17, I=   1, J=  90

 MAXIMUM STEPSIZE WHICH MEETS STABILITY CRITERION OF THE ADVECTION TERM
 (FOR PURE FINITE-DIFFERENCE OPTION, MIXELM=0) 
 =  8.053    (WHEN MIN. R.F.=1)  AT K=  16, I=   1, J=  90


 TOTAL NUMBER OF POINT SOURCES/SINKS PRESENT IN THE FLOW MODEL =    30

 MAXIMUM STEPSIZE WHICH MEETS STABILITY CRITERION OF THE SINK & SOURCE TERM
 =  12.24    (WHEN MIN. R.F.=1)  AT K=  17, I=   1, J=  91

 MAXIMUM STEPSIZE WHICH MEETS STABILITY CRITERION OF THE DISPERSION TERM
 =  4.033    (WHEN MIN. R.F.=1)  AT K=  17, I=   1, J=  90
     1 CALLS TO GCG PACKAGE FOR TRANSPORT TIME STEP 445 IN FLOW TIME STEP   1 STRESS PERIOD   1
     8 TOTAL ITERATIONS
  MAXIMUM CONCENTRATION CHANGES FOR EACH ITERATION:
  MAX. CHANGE LAYER,ROW,COL MAX. CHANGE LAYER,ROW,COL MAX. CHANGE LAYER,ROW,COL MAX. CHANGE LAYER,ROW,COL MAX. CHANGE LAYER,ROW,COL
 ------------------------------------------------------------------------------------------------------------------------------------
   0.5205E-01 ( 20,  1, 87)  0.4332E-02 ( 19,  1, 89)  0.2064E-02 ( 17,  1, 86)  0.4972E-03 ( 20,  1, 89)  0.9238E-04 ( 16,  1, 89)
   0.2116E-04 ( 20,  1, 89)  0.2381E-04 ( 16,  1, 90)  0.6547E-06 ( 17,  1, 90)
     1 CALLS TO GCG PACKAGE FOR TRANSPORT TIME STEP 445 IN FLOW TIME STEP   1 STRESS PERIOD   1
     8 TOTAL ITERATIONS
  MAXIMUM CONCENTRATION CHANGES FOR EACH ITERATION:
  MAX. CHANGE LAYER,ROW,COL MAX. CHANGE LAYER,ROW,COL MAX. CHANGE LAYER,ROW,COL MAX. CHANGE LAYER,ROW,COL MAX. CHANGE LAYER,ROW,COL
 ------------------------------------------------------------------------------------------------------------------------------------
   0.6062E-01 ( 20,  1, 87)  0.5119E-02 ( 19,  1, 89)  0.2050E-02 ( 19,  1, 89)  0.4603E-03 ( 23,  1, 87)  0.1217E-03 ( 16,  1, 89)
   0.2992E-04 ( 23,  1, 87)  0.1887E-04 ( 17,  1, 90)  0.8703E-06 ( 17,  1, 90)
 
 SOLVING FOR HEAD 


     2 CALLS TO PCG ROUTINE FOR TIME STEP   1 IN STRESS PERIOD    1
     9 TOTAL ITERATIONS

 MAXIMUM HEAD CHANGE FOR EACH ITERATION (1 INDICATES THE FIRST INNER ITERATION):

    HEAD CHANGE    HEAD CHANGE    HEAD CHANGE    HEAD CHANGE    HEAD CHANGE 
   LAYER,ROW,COL  LAYER,ROW,COL  LAYER,ROW,COL  LAYER,ROW,COL  LAYER,ROW,COL
 ---------------------------------------------------------------------------
  1 -0.1367E-01  0 -0.4544E-02  0  0.5035E-02  0  0.7430E-02  0 -0.8071E-02
   ( 15,  1, 86)  (  7,  1, 12)  (  8,  1, 12)  ( 11,  1, 56)  ( 11,  1, 56)
  0  0.1728E-02  0 -0.1147E-02  0  0.5898E-03  1 -0.6848E-03
   ( 11,  1, 63)  ( 11,  1, 63)  ( 11,  1, 65)  ( 11,  1, 70)

 MAXIMUM RESIDUAL FOR EACH ITERATION (1 INDICATES THE FIRST INNER ITERATION):

    RESIDUAL       RESIDUAL       RESIDUAL       RESIDUAL       RESIDUAL    
   LAYER,ROW,COL  LAYER,ROW,COL  LAYER,ROW,COL  LAYER,ROW,COL  LAYER,ROW,COL
 ---------------------------------------------------------------------------
  1 -0.1356E+06  0  0.9576E+05  0  0.9520E+05  0  0.2207E+05  0  -5210.    
   ( 21,  1, 89)  ( 19,  1, 89)  ( 19,  1, 89)  ( 19,  1, 89)  ( 17,  1, 88)
  0  -2799.      0  -2553.      0  -805.2      1  -708.9    
   ( 22,  1, 87)  ( 22,  1, 87)  ( 22,  1, 87)  ( 22,  1, 87)


 FLOW MODEL IS TRANSIENT
 FLOW MODEL CONTAINS CONSTANT-HEAD CELLS


 MAXIMUM STEPSIZE DURING WHICH ANY PARTICLE CANNOT MOVE MORE THAN ONE CELL
 =  13.25    (WHEN MIN. R.F.=1)  AT K=  17, I=   1, J=  90

 MAXIMUM STEPSIZE WHICH MEETS STABILITY CRITERION OF THE ADVECTION TERM
 (FOR PURE FINITE-DIFFERENCE OPTION, MIXELM=0) 
 =  8.012    (WHEN MIN. R.F.=1)  AT K=  16, I=   1, J=  90


 TOTAL NUMBER OF POINT SOURCES/SINKS PRESENT IN THE FLOW MODEL =    30

 MAXIMUM STEPSIZE WHICH MEETS STABILITY CRITERION OF THE SINK & SOURCE TERM
 =  12.19    (WHEN MIN. R.F.=1)  AT K=  17, I=   1, J=  91

 MAXIMUM STEPSIZE WHICH MEETS STABILITY CRITERION OF THE DISPERSION TERM
 =  4.389    (WHEN MIN. R.F.=1)  AT K=  17, I=   1, J=  90
     1 CALLS TO GCG PACKAGE FOR TRANSPORT TIME STEP 446 IN FLOW TIME STEP   1 STRESS PERIOD   1
     9 TOTAL ITERATIONS
     1 CALLS TO GCG PACKAGE FOR TRANSPORT TIME STEP 446 IN FLOW TIME STEP   1 STRESS PERIOD   1
     8 TOTAL ITERATIONS
 
 SOLVING FOR HEAD 


     2 CALLS TO PCG ROUTINE FOR TIME STEP   1 IN STRESS PERIOD    1
     8 TOTAL ITERATIONS

 MAXIMUM HEAD CHANGE FOR EACH ITERATION (1 INDICATES THE FIRST INNER ITERATION):

    HEAD CHANGE    HEAD CHANGE    HEAD CHANGE    HEAD CHANGE    HEAD CHANGE 
   LAYER,ROW,COL  LAYER,ROW,COL  LAYER,ROW,COL  LAYER,ROW,COL  LAYER,ROW,COL
 ---------------------------------------------------------------------------
  1  0.1329E-01  0 -0.3815E-02  0 -0.7824E-02  0 -0.5086E-02  0  0.1265E-01
   ( 15,  1, 86)  ( 17,  1, 89)  ( 11,  1, 52)  ( 11,  1, 52)  ( 11,  1, 52)
  0  0.1981E-02  0 -0.8335E-03  1  0.4888E-03
   ( 11,  1, 66)  ( 11,  1, 64)  (  7,  1, 46)

 MAXIMUM RESIDUAL FOR EACH ITERATION (1 INDICATES THE FIRST INNER ITERATION):

    RESIDUAL       RESIDUAL       RESIDUAL       RESIDUAL       RESIDUAL    
   LAYER,ROW,COL  LAYER,ROW,COL  LAYER,ROW,COL  LAYER,ROW,COL  LAYER,ROW,COL
 ---------------------------------------------------------------------------
  1  0.1356E+06  0 -0.9573E+05  0 -0.6338E+05  0 -0.2996E+05  0  -5677.    
   ( 21,  1, 89)  ( 19,  1, 89)  ( 19,  1, 89)  ( 19,  1, 89)  ( 17,  1, 87)
  0   2849.      0   2541.      1   2106.    
   ( 22,  1, 87)  ( 22,  1, 87)  ( 22,  1, 87)


 FLOW MODEL IS TRANSIENT
 FLOW MODEL CONTAINS CONSTANT-HEAD CELLS


 MAXIMUM STEPSIZE DURING WHICH ANY PARTICLE CANNOT MOVE MORE THAN ONE CELL
 =  12.84    (WHEN MIN. R.F.=1)  AT K=  17, I=   1, J=  90

 MAXIMUM STEPSIZE WHICH MEETS STABILITY CRITERION OF THE ADVECTION TERM
 (FOR PURE FINITE-DIFFERENCE OPTION, MIXELM=0) 
 =  8.032    (WHEN MIN. R.F.=1)  AT K=  16, I=   1, J=  90


 TOTAL NUMBER OF POINT SOURCES/SINKS PRESENT IN THE FLOW MODEL =    30

 MAXIMUM STEPSIZE WHICH MEETS STABILITY CRITERION OF THE SINK & SOURCE TERM
 =  12.20    (WHEN MIN. R.F.=1)  AT K=  17, I=   1, J=  91

 MAXIMUM STEPSIZE WHICH MEETS STABILITY CRITERION OF THE DISPERSION TERM
 =  4.024    (WHEN MIN. R.F.=1)  AT K=  17, I=   1, J=  90
     1 CALLS TO GCG PACKAGE FOR TRANSPORT TIME STEP 447 IN FLOW TIME STEP   1 STRESS PERIOD   1
     8 TOTAL ITERATIONS
     1 CALLS TO GCG PACKAGE FOR TRANSPORT TIME STEP 447 IN FLOW TIME STEP   1 STRESS PERIOD   1
     8 TOTAL ITERATIONS
 
 SOLVING FOR HEAD 


     2 CALLS TO PCG ROUTINE FOR TIME STEP   1 IN STRESS PERIOD    1
     9 TOTAL ITERATIONS

 MAXIMUM HEAD CHANGE FOR EACH ITERATION (1 INDICATES THE FIRST INNER ITERATION):

    HEAD CHANGE    HEAD CHANGE    HEAD CHANGE    HEAD CHANGE    HEAD CHANGE 
   LAYER,ROW,COL  LAYER,ROW,COL  LAYER,ROW,COL  LAYER,ROW,COL  LAYER,ROW,COL
 ---------------------------------------------------------------------------
  1 -0.1380E-01  0 -0.6845E-02  0  0.6436E-02  0 -0.1000E-01  0  0.6954E-02
   ( 15,  1, 86)  (  9,  1, 12)  (  8,  1, 12)  (  7,  1, 46)  (  7,  1, 46)
  0  0.3634E-02  0  0.1595E-02  0  0.6942E-03  1 -0.7222E-03
   ( 11,  1, 52)  ( 11,  1, 70)  ( 11,  1, 70)  ( 11,  1, 70)

 MAXIMUM RESIDUAL FOR EACH ITERATION (1 INDICATES THE FIRST INNER ITERATION):

    RESIDUAL       RESIDUAL       RESIDUAL       RESIDUAL       RESIDUAL    
   LAYER,ROW,COL  LAYER,ROW,COL  LAYER,ROW,COL  LAYER,ROW,COL  LAYER,ROW,COL
 ---------------------------------------------------------------------------
  1 -0.1380E+06  0  0.9732E+05  0  0.9703E+05  0  0.7745E+05  0   6121.    
   ( 21,  1, 89)  ( 19,  1, 89)  ( 19,  1, 89)  ( 19,  1, 89)  ( 17,  1, 87)
  0  -2902.      0  -2563.      0  -1229.      1  -1086.    
   ( 17,  1, 88)  ( 22,  1, 87)  ( 22,  1, 87)  ( 22,  1, 87)


 FLOW MODEL IS TRANSIENT
 FLOW MODEL CONTAINS CONSTANT-HEAD CELLS


 MAXIMUM STEPSIZE DURING WHICH ANY PARTICLE CANNOT MOVE MORE THAN ONE CELL
 =  13.16    (WHEN MIN. R.F.=1)  AT K=  17, I=   1, J=  90

 MAXIMUM STEPSIZE WHICH MEETS STABILITY CRITERION OF THE ADVECTION TERM
 (FOR PURE FINITE-DIFFERENCE OPTION, MIXELM=0) 
 =  7.977    (WHEN MIN. R.F.=1)  AT K=  16, I=   1, J=  90


 TOTAL NUMBER OF POINT SOURCES/SINKS PRESENT IN THE FLOW MODEL =    30

 MAXIMUM STEPSIZE WHICH MEETS STABILITY CRITERION OF THE SINK & SOURCE TERM
 =  12.08    (WHEN MIN. R.F.=1)  AT K=  17, I=   1, J=  91

 MAXIMUM STEPSIZE WHICH MEETS STABILITY CRITERION OF THE DISPERSION TERM
 =  4.346    (WHEN MIN. R.F.=1)  AT K=  17, I=   1, J=  90
     1 CALLS TO GCG PACKAGE FOR TRANSPORT TIME STEP 448 IN FLOW TIME STEP   1 STRESS PERIOD   1
    10 TOTAL ITERATIONS
     1 CALLS TO GCG PACKAGE FOR TRANSPORT TIME STEP 448 IN FLOW TIME STEP   1 STRESS PERIOD   1
     8 TOTAL ITERATIONS
 
 SOLVING FOR HEAD 


     2 CALLS TO PCG ROUTINE FOR TIME STEP   1 IN STRESS PERIOD    1
     8 TOTAL ITERATIONS

 MAXIMUM HEAD CHANGE FOR EACH ITERATION (1 INDICATES THE FIRST INNER ITERATION):

    HEAD CHANGE    HEAD CHANGE    HEAD CHANGE    HEAD CHANGE    HEAD CHANGE 
   LAYER,ROW,COL  LAYER,ROW,COL  LAYER,ROW,COL  LAYER,ROW,COL  LAYER,ROW,COL
 ---------------------------------------------------------------------------
  1  0.1370E-01  0 -0.4176E-02  0 -0.3336E-02  0 -0.9688E-02  0  0.1089E-01
   ( 15,  1, 86)  ( 17,  1, 89)  (  8,  1, 12)  ( 11,  1, 64)  ( 11,  1, 64)
  0  0.2264E-02  0 -0.8997E-03  1 -0.5538E-03
   ( 11,  1, 52)  ( 11,  1, 63)  ( 11,  1, 70)

 MAXIMUM RESIDUAL FOR EACH ITERATION (1 INDICATES THE FIRST INNER ITERATION):

    RESIDUAL       RESIDUAL       RESIDUAL       RESIDUAL       RESIDUAL    
   LAYER,ROW,COL  LAYER,ROW,COL  LAYER,ROW,COL  LAYER,ROW,COL  LAYER,ROW,COL
 ---------------------------------------------------------------------------
  1  0.1347E+06  0 -0.9576E+05  0 -0.9484E+05  0 -0.2023E+05  0   5134.    
   ( 21,  1, 89)  ( 19,  1, 89)  ( 19,  1, 89)  ( 19,  1, 89)  ( 17,  1, 88)
  0   2762.      0   2471.      1   1984.    
   ( 22,  1, 87)  ( 22,  1, 87)  ( 22,  1, 87)


 FLOW MODEL IS TRANSIENT
 FLOW MODEL CONTAINS CONSTANT-HEAD CELLS


 MAXIMUM STEPSIZE DURING WHICH ANY PARTICLE CANNOT MOVE MORE THAN ONE CELL
 =  12.83    (WHEN MIN. R.F.=1)  AT K=  17, I=   1, J=  90

 MAXIMUM STEPSIZE WHICH MEETS STABILITY CRITERION OF THE ADVECTION TERM
 (FOR PURE FINITE-DIFFERENCE OPTION, MIXELM=0) 
 =  8.029    (WHEN MIN. R.F.=1)  AT K=  16, I=   1, J=  90


 TOTAL NUMBER OF POINT SOURCES/SINKS PRESENT IN THE FLOW MODEL =    30

 MAXIMUM STEPSIZE WHICH MEETS STABILITY CRITERION OF THE SINK & SOURCE TERM
 =  12.17    (WHEN MIN. R.F.=1)  AT K=  17, I=   1, J=  91

 MAXIMUM STEPSIZE WHICH MEETS STABILITY CRITERION OF THE DISPERSION TERM
 =  4.019    (WHEN MIN. R.F.=1)  AT K=  17, I=   1, J=  90
     1 CALLS TO GCG PACKAGE FOR TRANSPORT TIME STEP 449 IN FLOW TIME STEP   1 STRESS PERIOD   1
     8 TOTAL ITERATIONS
     1 CALLS TO GCG PACKAGE FOR TRANSPORT TIME STEP 449 IN FLOW TIME STEP   1 STRESS PERIOD   1
     8 TOTAL ITERATIONS
 
 SOLVING FOR HEAD 


     2 CALLS TO PCG ROUTINE FOR TIME STEP   1 IN STRESS PERIOD    1
     9 TOTAL ITERATIONS

 MAXIMUM HEAD CHANGE FOR EACH ITERATION (1 INDICATES THE FIRST INNER ITERATION):

    HEAD CHANGE    HEAD CHANGE    HEAD CHANGE    HEAD CHANGE    HEAD CHANGE 
   LAYER,ROW,COL  LAYER,ROW,COL  LAYER,ROW,COL  LAYER,ROW,COL  LAYER,ROW,COL
 ---------------------------------------------------------------------------
  1 -0.1368E-01  0 -0.7886E-02  0  0.4771E-02  0 -0.9053E-02  0 -0.6656E-02
   ( 15,  1, 86)  (  7,  1, 41)  (  7,  1, 12)  ( 11,  1, 36)  (  6,  1, 47)
  0  0.6496E-02  0 -0.1644E-02  0 -0.8405E-03  1  0.8665E-03
   ( 11,  1, 63)  ( 11,  1, 63)  ( 11,  1, 52)  ( 11,  1, 52)

 MAXIMUM RESIDUAL FOR EACH ITERATION (1 INDICATES THE FIRST INNER ITERATION):

    RESIDUAL       RESIDUAL       RESIDUAL       RESIDUAL       RESIDUAL    
   LAYER,ROW,COL  LAYER,ROW,COL  LAYER,ROW,COL  LAYER,ROW,COL  LAYER,ROW,COL
 ---------------------------------------------------------------------------
  1 -0.1338E+06  0  0.9425E+05  0  0.9366E+05  0  0.7542E+05  0   6655.    
   ( 21,  1, 89)  ( 19,  1, 89)  ( 19,  1, 89)  ( 19,  1, 89)  ( 17,  1, 87)
  0  -3104.      0  -2556.      0  -1540.      1  -1370.    
   ( 17,  1, 88)  ( 22,  1, 87)  ( 22,  1, 87)  ( 22,  1, 87)


 FLOW MODEL IS TRANSIENT
 FLOW MODEL CONTAINS CONSTANT-HEAD CELLS


 MAXIMUM STEPSIZE DURING WHICH ANY PARTICLE CANNOT MOVE MORE THAN ONE CELL
 =  13.19    (WHEN MIN. R.F.=1)  AT K=  17, I=   1, J=  90

 MAXIMUM STEPSIZE WHICH MEETS STABILITY CRITERION OF THE ADVECTION TERM
 (FOR PURE FINITE-DIFFERENCE OPTION, MIXELM=0) 
 =  7.987    (WHEN MIN. R.F.=1)  AT K=  16, I=   1, J=  90


 TOTAL NUMBER OF POINT SOURCES/SINKS PRESENT IN THE FLOW MODEL =    30

 MAXIMUM STEPSIZE WHICH MEETS STABILITY CRITERION OF THE SINK & SOURCE TERM
 =  12.12    (WHEN MIN. R.F.=1)  AT K=  17, I=   1, J=  91

 MAXIMUM STEPSIZE WHICH MEETS STABILITY CRITERION OF THE DISPERSION TERM
 =  4.364    (WHEN MIN. R.F.=1)  AT K=  17, I=   1, J=  90
     1 CALLS TO GCG PACKAGE FOR TRANSPORT TIME STEP 450 IN FLOW TIME STEP   1 STRESS PERIOD   1
     8 TOTAL ITERATIONS
  MAXIMUM CONCENTRATION CHANGES FOR EACH ITERATION:
  MAX. CHANGE LAYER,ROW,COL MAX. CHANGE LAYER,ROW,COL MAX. CHANGE LAYER,ROW,COL MAX. CHANGE LAYER,ROW,COL MAX. CHANGE LAYER,ROW,COL
 ------------------------------------------------------------------------------------------------------------------------------------
   0.4863E-01 ( 20,  1, 87)  0.3291E-02 ( 19,  1, 87)  0.2163E-02 ( 18,  1, 87)  0.2128E-03 ( 16,  1, 88)  0.1432E-03 ( 16,  1, 89)
   0.2801E-04 ( 16,  1, 90)  0.2727E-05 ( 21,  1, 78)  0.5042E-07 ( 15,  1, 89)
     1 CALLS TO GCG PACKAGE FOR TRANSPORT TIME STEP 450 IN FLOW TIME STEP   1 STRESS PERIOD   1
     8 TOTAL ITERATIONS
  MAXIMUM CONCENTRATION CHANGES FOR EACH ITERATION:
  MAX. CHANGE LAYER,ROW,COL MAX. CHANGE LAYER,ROW,COL MAX. CHANGE LAYER,ROW,COL MAX. CHANGE LAYER,ROW,COL MAX. CHANGE LAYER,ROW,COL
 ------------------------------------------------------------------------------------------------------------------------------------
   0.5615E-01 ( 20,  1, 87)  0.4192E-02 ( 19,  1, 87)  0.2298E-02 ( 18,  1, 87)  0.3024E-03 ( 18,  1, 87)  0.1349E-03 ( 17,  1, 89)
   0.3739E-04 ( 17,  1, 90)  0.5515E-05 ( 17,  1, 90)  0.6107E-06 ( 16,  1, 89)



 >>>>>>>>>>>>>>>>>>>>>>>>>>>>>>>>>>>>>>>>>>>>>>>>>>>>>>>FOR COMPONENT NO. 01<<<<<<<<<<<<<<<<<<<<<<<<<<<<<<<<<<<<<<<<<<<<<<<<<<<<<<<


                                            -------------------------------------------
                                                      TRANSPORT STEP NO.  450
                                            -------------------------------------------

 TOTAL ELAPSED TIME SINCE BEGINNING OF SIMULATION =   22500.00    D   
 .....................................................................

                     CUMMULATIVE MASS BUDGETS AT END OF TRANSPORT STEP  450, TIME STEP    1, STRESS PERIOD    1
                     ------------------------------------------------------------------------------------------

                                                             IN                           OUT
                                                      ----------------             ----------------
                               CONSTANT CONCENTRATION:    0.000000                    0.000000    
                                        CONSTANT HEAD:   0.8904228E+09              -0.8902234E+09
                                                WELLS:    0.000000                    0.000000    
                                             RECHARGE:    0.000000                    0.000000    
                               1ST/0TH ORDER REACTION:    0.000000                    0.000000    
                                MASS STORAGE (SOLUTE):   0.1245003E+09              -0.1246999E+09
                            ---------------------------------------------------------------------------
                                              [TOTAL]:   0.1014924E+10 KG           -0.1014924E+10 KG  

                                                          NET (IN - OUT):   -140.1886    
                                                   DISCREPANCY (PERCENT):  -0.1381272E-04



 >>>>>>>>>>>>>>>>>>>>>>>>>>>>>>>>>>>>>>>>>>>>>>>>>>>>>>>FOR COMPONENT NO. 02<<<<<<<<<<<<<<<<<<<<<<<<<<<<<<<<<<<<<<<<<<<<<<<<<<<<<<<


                                            -------------------------------------------
                                                      TRANSPORT STEP NO.  450
                                            -------------------------------------------

 TOTAL ELAPSED TIME SINCE BEGINNING OF SIMULATION =   22500.00    D   
 .....................................................................

                     CUMMULATIVE MASS BUDGETS AT END OF TRANSPORT STEP  450, TIME STEP    1, STRESS PERIOD    1
                     ------------------------------------------------------------------------------------------

                                                             IN                           OUT
                                                      ----------------             ----------------
                               CONSTANT CONCENTRATION:    0.000000                    0.000000    
                                        CONSTANT HEAD:    0.000000                  -0.1253217E+12
                                                WELLS:    0.000000                    0.000000    
                                             RECHARGE:    0.000000                    0.000000    
                               1ST/0TH ORDER REACTION:   0.3723750E+12                0.000000    
                                MASS STORAGE (SOLUTE):   0.3793981E+11              -0.2849931E+12
                            ---------------------------------------------------------------------------
                                              [TOTAL]:   0.4103154E+12 KG           -0.4103154E+12 KG  

                                                          NET (IN - OUT):   -41659.67    
                                                   DISCREPANCY (PERCENT):  -0.1015308E-04
 
 SOLVING FOR HEAD 


     2 CALLS TO PCG ROUTINE FOR TIME STEP   1 IN STRESS PERIOD    1
     8 TOTAL ITERATIONS

 MAXIMUM HEAD CHANGE FOR EACH ITERATION (1 INDICATES THE FIRST INNER ITERATION):

    HEAD CHANGE    HEAD CHANGE    HEAD CHANGE    HEAD CHANGE    HEAD CHANGE 
   LAYER,ROW,COL  LAYER,ROW,COL  LAYER,ROW,COL  LAYER,ROW,COL  LAYER,ROW,COL
 ---------------------------------------------------------------------------
  1  0.1370E-01  0 -0.4244E-02  0 -0.3438E-02  0 -0.1182E-01  0  0.1269E-01
   ( 15,  1, 86)  ( 17,  1, 89)  (  8,  1, 12)  ( 11,  1, 51)  ( 11,  1, 52)
  0 -0.1674E-02  0 -0.9135E-03  1 -0.7432E-03
   ( 11,  1, 54)  ( 11,  1, 64)  ( 11,  1, 58)

 MAXIMUM RESIDUAL FOR EACH ITERATION (1 INDICATES THE FIRST INNER ITERATION):

    RESIDUAL       RESIDUAL       RESIDUAL       RESIDUAL       RESIDUAL    
   LAYER,ROW,COL  LAYER,ROW,COL  LAYER,ROW,COL  LAYER,ROW,COL  LAYER,ROW,COL
 ---------------------------------------------------------------------------
  1  0.1350E+06  0 -0.9581E+05  0 -0.9492E+05  0 -0.2525E+05  0   5390.    
   ( 21,  1, 89)  ( 19,  1, 89)  ( 19,  1, 89)  ( 19,  1, 89)  ( 17,  1, 88)
  0   2757.      0   2061.      1   1820.    
   ( 22,  1, 87)  ( 22,  1, 87)  ( 22,  1, 87)


 FLOW MODEL IS TRANSIENT
 FLOW MODEL CONTAINS CONSTANT-HEAD CELLS


 MAXIMUM STEPSIZE DURING WHICH ANY PARTICLE CANNOT MOVE MORE THAN ONE CELL
 =  12.85    (WHEN MIN. R.F.=1)  AT K=  17, I=   1, J=  90

 MAXIMUM STEPSIZE WHICH MEETS STABILITY CRITERION OF THE ADVECTION TERM
 (FOR PURE FINITE-DIFFERENCE OPTION, MIXELM=0) 
 =  8.034    (WHEN MIN. R.F.=1)  AT K=  16, I=   1, J=  90


 TOTAL NUMBER OF POINT SOURCES/SINKS PRESENT IN THE FLOW MODEL =    30

 MAXIMUM STEPSIZE WHICH MEETS STABILITY CRITERION OF THE SINK & SOURCE TERM
 =  12.20    (WHEN MIN. R.F.=1)  AT K=  17, I=   1, J=  91

 MAXIMUM STEPSIZE WHICH MEETS STABILITY CRITERION OF THE DISPERSION TERM
 =  4.025    (WHEN MIN. R.F.=1)  AT K=  17, I=   1, J=  90
     1 CALLS TO GCG PACKAGE FOR TRANSPORT TIME STEP 451 IN FLOW TIME STEP   1 STRESS PERIOD   1
     8 TOTAL ITERATIONS
     1 CALLS TO GCG PACKAGE FOR TRANSPORT TIME STEP 451 IN FLOW TIME STEP   1 STRESS PERIOD   1
     8 TOTAL ITERATIONS
 
 SOLVING FOR HEAD 


     2 CALLS TO PCG ROUTINE FOR TIME STEP   1 IN STRESS PERIOD    1
     9 TOTAL ITERATIONS

 MAXIMUM HEAD CHANGE FOR EACH ITERATION (1 INDICATES THE FIRST INNER ITERATION):

    HEAD CHANGE    HEAD CHANGE    HEAD CHANGE    HEAD CHANGE    HEAD CHANGE 
   LAYER,ROW,COL  LAYER,ROW,COL  LAYER,ROW,COL  LAYER,ROW,COL  LAYER,ROW,COL
 ---------------------------------------------------------------------------
  1 -0.1364E-01  0 -0.4522E-02  0  0.4642E-02  0 -0.1125E-01  0  0.9235E-02
   ( 15,  1, 86)  (  8,  1, 12)  (  8,  1, 12)  ( 11,  1, 67)  ( 11,  1, 67)
  0  0.2613E-02  0  0.1714E-02  0  0.7182E-03  1 -0.6984E-03
   ( 11,  1, 50)  ( 11,  1, 58)  ( 11,  1, 70)  ( 11,  1, 70)

 MAXIMUM RESIDUAL FOR EACH ITERATION (1 INDICATES THE FIRST INNER ITERATION):

    RESIDUAL       RESIDUAL       RESIDUAL       RESIDUAL       RESIDUAL    
   LAYER,ROW,COL  LAYER,ROW,COL  LAYER,ROW,COL  LAYER,ROW,COL  LAYER,ROW,COL
 ---------------------------------------------------------------------------
  1 -0.1345E+06  0  0.9534E+05  0  0.9470E+05  0  0.4345E+05  0   5913.    
   ( 21,  1, 89)  ( 19,  1, 89)  ( 19,  1, 89)  ( 19,  1, 89)  ( 17,  1, 87)
  0  -2765.      0  -2551.      0  -996.0      1  -880.0    
   ( 17,  1, 88)  ( 22,  1, 87)  ( 22,  1, 87)  ( 22,  1, 87)


 FLOW MODEL IS TRANSIENT
 FLOW MODEL CONTAINS CONSTANT-HEAD CELLS


 MAXIMUM STEPSIZE DURING WHICH ANY PARTICLE CANNOT MOVE MORE THAN ONE CELL
 =  13.20    (WHEN MIN. R.F.=1)  AT K=  17, I=   1, J=  90

 MAXIMUM STEPSIZE WHICH MEETS STABILITY CRITERION OF THE ADVECTION TERM
 (FOR PURE FINITE-DIFFERENCE OPTION, MIXELM=0) 
 =  7.989    (WHEN MIN. R.F.=1)  AT K=  16, I=   1, J=  90


 TOTAL NUMBER OF POINT SOURCES/SINKS PRESENT IN THE FLOW MODEL =    30

 MAXIMUM STEPSIZE WHICH MEETS STABILITY CRITERION OF THE SINK & SOURCE TERM
 =  12.14    (WHEN MIN. R.F.=1)  AT K=  17, I=   1, J=  91

 MAXIMUM STEPSIZE WHICH MEETS STABILITY CRITERION OF THE DISPERSION TERM
 =  4.368    (WHEN MIN. R.F.=1)  AT K=  17, I=   1, J=  90
     1 CALLS TO GCG PACKAGE FOR TRANSPORT TIME STEP 452 IN FLOW TIME STEP   1 STRESS PERIOD   1
    10 TOTAL ITERATIONS
     1 CALLS TO GCG PACKAGE FOR TRANSPORT TIME STEP 452 IN FLOW TIME STEP   1 STRESS PERIOD   1
     8 TOTAL ITERATIONS
 
 SOLVING FOR HEAD 


     2 CALLS TO PCG ROUTINE FOR TIME STEP   1 IN STRESS PERIOD    1
     8 TOTAL ITERATIONS

 MAXIMUM HEAD CHANGE FOR EACH ITERATION (1 INDICATES THE FIRST INNER ITERATION):

    HEAD CHANGE    HEAD CHANGE    HEAD CHANGE    HEAD CHANGE    HEAD CHANGE 
   LAYER,ROW,COL  LAYER,ROW,COL  LAYER,ROW,COL  LAYER,ROW,COL  LAYER,ROW,COL
 ---------------------------------------------------------------------------
  1  0.1351E-01  0 -0.4069E-02  0 -0.2842E-02  0 -0.6424E-02  0  0.7499E-02
   ( 15,  1, 86)  ( 17,  1, 89)  (  8,  1, 12)  ( 11,  1, 61)  ( 11,  1, 61)
  0 -0.1638E-02  0 -0.8006E-03  1 -0.6461E-03
   ( 11,  1, 58)  ( 11,  1, 36)  ( 11,  1, 69)

 MAXIMUM RESIDUAL FOR EACH ITERATION (1 INDICATES THE FIRST INNER ITERATION):

    RESIDUAL       RESIDUAL       RESIDUAL       RESIDUAL       RESIDUAL    
   LAYER,ROW,COL  LAYER,ROW,COL  LAYER,ROW,COL  LAYER,ROW,COL  LAYER,ROW,COL
 ---------------------------------------------------------------------------
  1  0.1350E+06  0 -0.9543E+05  0 -0.9436E+05  0 -0.2129E+05  0   5144.    
   ( 21,  1, 89)  ( 19,  1, 89)  ( 19,  1, 89)  ( 19,  1, 89)  ( 17,  1, 88)
  0   2777.      0   2485.      1   2000.    
   ( 22,  1, 87)  ( 22,  1, 87)  ( 22,  1, 87)


 FLOW MODEL IS TRANSIENT
 FLOW MODEL CONTAINS CONSTANT-HEAD CELLS


 MAXIMUM STEPSIZE DURING WHICH ANY PARTICLE CANNOT MOVE MORE THAN ONE CELL
 =  12.83    (WHEN MIN. R.F.=1)  AT K=  17, I=   1, J=  90

 MAXIMUM STEPSIZE WHICH MEETS STABILITY CRITERION OF THE ADVECTION TERM
 (FOR PURE FINITE-DIFFERENCE OPTION, MIXELM=0) 
 =  8.026    (WHEN MIN. R.F.=1)  AT K=  16, I=   1, J=  90


 TOTAL NUMBER OF POINT SOURCES/SINKS PRESENT IN THE FLOW MODEL =    30

 MAXIMUM STEPSIZE WHICH MEETS STABILITY CRITERION OF THE SINK & SOURCE TERM
 =  12.19    (WHEN MIN. R.F.=1)  AT K=  17, I=   1, J=  91

 MAXIMUM STEPSIZE WHICH MEETS STABILITY CRITERION OF THE DISPERSION TERM
 =  4.020    (WHEN MIN. R.F.=1)  AT K=  17, I=   1, J=  90
     1 CALLS TO GCG PACKAGE FOR TRANSPORT TIME STEP 453 IN FLOW TIME STEP   1 STRESS PERIOD   1
     8 TOTAL ITERATIONS
     1 CALLS TO GCG PACKAGE FOR TRANSPORT TIME STEP 453 IN FLOW TIME STEP   1 STRESS PERIOD   1
     8 TOTAL ITERATIONS
 
 SOLVING FOR HEAD 


     2 CALLS TO PCG ROUTINE FOR TIME STEP   1 IN STRESS PERIOD    1
    10 TOTAL ITERATIONS

 MAXIMUM HEAD CHANGE FOR EACH ITERATION (1 INDICATES THE FIRST INNER ITERATION):

    HEAD CHANGE    HEAD CHANGE    HEAD CHANGE    HEAD CHANGE    HEAD CHANGE 
   LAYER,ROW,COL  LAYER,ROW,COL  LAYER,ROW,COL  LAYER,ROW,COL  LAYER,ROW,COL
 ---------------------------------------------------------------------------
  1 -0.1367E-01  0 -0.7171E-02  0  0.4410E-02  0  0.9674E-02  0 -0.6194E-02
   ( 15,  1, 86)  ( 11,  1, 69)  (  7,  1, 12)  ( 11,  1, 68)  ( 11,  1, 67)
  0  0.4352E-02  0  0.1388E-02  0  0.1083E-02  0 -0.6725E-03  1 -0.2400E-03
   ( 11,  1, 62)  ( 11,  1, 70)  ( 11,  1, 57)  ( 11,  1, 57)  ( 11,  1, 65)

 MAXIMUM RESIDUAL FOR EACH ITERATION (1 INDICATES THE FIRST INNER ITERATION):

    RESIDUAL       RESIDUAL       RESIDUAL       RESIDUAL       RESIDUAL    
   LAYER,ROW,COL  LAYER,ROW,COL  LAYER,ROW,COL  LAYER,ROW,COL  LAYER,ROW,COL
 ---------------------------------------------------------------------------
  1 -0.1353E+06  0  0.9558E+05  0  0.9489E+05  0  0.7691E+05  0   6631.    
   ( 21,  1, 89)  ( 19,  1, 89)  ( 19,  1, 89)  ( 19,  1, 89)  ( 17,  1, 87)
  0  -3136.      0  -2540.      0  -1511.      0  -390.4      1   336.7    
   ( 17,  1, 88)  ( 22,  1, 87)  ( 22,  1, 87)  ( 22,  1, 87)  ( 18,  1, 90)


 FLOW MODEL IS TRANSIENT
 FLOW MODEL CONTAINS CONSTANT-HEAD CELLS


 MAXIMUM STEPSIZE DURING WHICH ANY PARTICLE CANNOT MOVE MORE THAN ONE CELL
 =  13.16    (WHEN MIN. R.F.=1)  AT K=  17, I=   1, J=  90

 MAXIMUM STEPSIZE WHICH MEETS STABILITY CRITERION OF THE ADVECTION TERM
 (FOR PURE FINITE-DIFFERENCE OPTION, MIXELM=0) 
 =  7.977    (WHEN MIN. R.F.=1)  AT K=  16, I=   1, J=  90


 TOTAL NUMBER OF POINT SOURCES/SINKS PRESENT IN THE FLOW MODEL =    30

 MAXIMUM STEPSIZE WHICH MEETS STABILITY CRITERION OF THE SINK & SOURCE TERM
 =  12.10    (WHEN MIN. R.F.=1)  AT K=  17, I=   1, J=  91

 MAXIMUM STEPSIZE WHICH MEETS STABILITY CRITERION OF THE DISPERSION TERM
 =  4.353    (WHEN MIN. R.F.=1)  AT K=  17, I=   1, J=  90
     1 CALLS TO GCG PACKAGE FOR TRANSPORT TIME STEP 454 IN FLOW TIME STEP   1 STRESS PERIOD   1
     7 TOTAL ITERATIONS
     1 CALLS TO GCG PACKAGE FOR TRANSPORT TIME STEP 454 IN FLOW TIME STEP   1 STRESS PERIOD   1
     8 TOTAL ITERATIONS
 
 SOLVING FOR HEAD 


     2 CALLS TO PCG ROUTINE FOR TIME STEP   1 IN STRESS PERIOD    1
     8 TOTAL ITERATIONS

 MAXIMUM HEAD CHANGE FOR EACH ITERATION (1 INDICATES THE FIRST INNER ITERATION):

    HEAD CHANGE    HEAD CHANGE    HEAD CHANGE    HEAD CHANGE    HEAD CHANGE 
   LAYER,ROW,COL  LAYER,ROW,COL  LAYER,ROW,COL  LAYER,ROW,COL  LAYER,ROW,COL
 ---------------------------------------------------------------------------
  1  0.1352E-01  0 -0.3995E-02  0 -0.2450E-02  0 -0.5866E-02  0  0.7533E-02
   ( 15,  1, 86)  ( 17,  1, 89)  (  8,  1, 12)  ( 11,  1, 55)  ( 11,  1, 54)
  0 -0.1859E-02  0 -0.7512E-03  1 -0.5829E-03
   ( 11,  1, 53)  ( 11,  1, 44)  ( 11,  1, 63)

 MAXIMUM RESIDUAL FOR EACH ITERATION (1 INDICATES THE FIRST INNER ITERATION):

    RESIDUAL       RESIDUAL       RESIDUAL       RESIDUAL       RESIDUAL    
   LAYER,ROW,COL  LAYER,ROW,COL  LAYER,ROW,COL  LAYER,ROW,COL  LAYER,ROW,COL
 ---------------------------------------------------------------------------
  1  0.1342E+06  0 -0.9458E+05  0 -0.9326E+05  0 -0.1685E+05  0   4794.    
   ( 21,  1, 89)  ( 19,  1, 89)  ( 19,  1, 89)  ( 19,  1, 89)  ( 17,  1, 88)
  0   2793.      0   2122.      1   1879.    
   ( 22,  1, 87)  ( 22,  1, 87)  ( 22,  1, 87)


 FLOW MODEL IS TRANSIENT
 FLOW MODEL CONTAINS CONSTANT-HEAD CELLS


 MAXIMUM STEPSIZE DURING WHICH ANY PARTICLE CANNOT MOVE MORE THAN ONE CELL
 =  12.81    (WHEN MIN. R.F.=1)  AT K=  17, I=   1, J=  90

 MAXIMUM STEPSIZE WHICH MEETS STABILITY CRITERION OF THE ADVECTION TERM
 (FOR PURE FINITE-DIFFERENCE OPTION, MIXELM=0) 
 =  8.015    (WHEN MIN. R.F.=1)  AT K=  16, I=   1, J=  90


 TOTAL NUMBER OF POINT SOURCES/SINKS PRESENT IN THE FLOW MODEL =    30

 MAXIMUM STEPSIZE WHICH MEETS STABILITY CRITERION OF THE SINK & SOURCE TERM
 =  12.16    (WHEN MIN. R.F.=1)  AT K=  17, I=   1, J=  91

 MAXIMUM STEPSIZE WHICH MEETS STABILITY CRITERION OF THE DISPERSION TERM
 =  4.013    (WHEN MIN. R.F.=1)  AT K=  17, I=   1, J=  90
     1 CALLS TO GCG PACKAGE FOR TRANSPORT TIME STEP 455 IN FLOW TIME STEP   1 STRESS PERIOD   1
     8 TOTAL ITERATIONS
  MAXIMUM CONCENTRATION CHANGES FOR EACH ITERATION:
  MAX. CHANGE LAYER,ROW,COL MAX. CHANGE LAYER,ROW,COL MAX. CHANGE LAYER,ROW,COL MAX. CHANGE LAYER,ROW,COL MAX. CHANGE LAYER,ROW,COL
 ------------------------------------------------------------------------------------------------------------------------------------
   0.5241E-01 ( 20,  1, 87)  0.4240E-02 ( 19,  1, 89)  0.2114E-02 ( 17,  1, 86)  0.4710E-03 ( 20,  1, 89)  0.9363E-04 ( 16,  1, 89)
   0.2063E-04 ( 20,  1, 89)  0.1980E-04 ( 16,  1, 90)  0.6736E-06 ( 17,  1, 90)
     1 CALLS TO GCG PACKAGE FOR TRANSPORT TIME STEP 455 IN FLOW TIME STEP   1 STRESS PERIOD   1
     8 TOTAL ITERATIONS
  MAXIMUM CONCENTRATION CHANGES FOR EACH ITERATION:
  MAX. CHANGE LAYER,ROW,COL MAX. CHANGE LAYER,ROW,COL MAX. CHANGE LAYER,ROW,COL MAX. CHANGE LAYER,ROW,COL MAX. CHANGE LAYER,ROW,COL
 ------------------------------------------------------------------------------------------------------------------------------------
   0.6081E-01 ( 20,  1, 87)  0.4970E-02 ( 19,  1, 89)  0.2053E-02 ( 18,  1, 86)  0.4323E-03 ( 23,  1, 87)  0.1166E-03 ( 16,  1, 89)
   0.2476E-04 ( 23,  1, 87)  0.1692E-04 ( 17,  1, 90)  0.8615E-06 ( 17,  1, 90)
 
 SOLVING FOR HEAD 


     2 CALLS TO PCG ROUTINE FOR TIME STEP   1 IN STRESS PERIOD    1
     9 TOTAL ITERATIONS

 MAXIMUM HEAD CHANGE FOR EACH ITERATION (1 INDICATES THE FIRST INNER ITERATION):

    HEAD CHANGE    HEAD CHANGE    HEAD CHANGE    HEAD CHANGE    HEAD CHANGE 
   LAYER,ROW,COL  LAYER,ROW,COL  LAYER,ROW,COL  LAYER,ROW,COL  LAYER,ROW,COL
 ---------------------------------------------------------------------------
  1 -0.1354E-01  0 -0.4089E-02  0  0.3362E-02  0  0.9693E-02  0 -0.8594E-02
   ( 15,  1, 86)  (  4,  1, 47)  (  8,  1, 12)  (  7,  1, 50)  (  8,  1, 51)
  0 -0.2039E-02  0  0.1087E-02  0  0.6607E-03  1 -0.5560E-03
   ( 11,  1, 35)  ( 11,  1, 63)  ( 11,  1, 70)  ( 11,  1, 50)

 MAXIMUM RESIDUAL FOR EACH ITERATION (1 INDICATES THE FIRST INNER ITERATION):

    RESIDUAL       RESIDUAL       RESIDUAL       RESIDUAL       RESIDUAL    
   LAYER,ROW,COL  LAYER,ROW,COL  LAYER,ROW,COL  LAYER,ROW,COL  LAYER,ROW,COL
 ---------------------------------------------------------------------------
  1 -0.1332E+06  0  0.9399E+05  0  0.9310E+05  0  0.5615E+05  0   6156.    
   ( 21,  1, 89)  ( 19,  1, 89)  ( 19,  1, 89)  ( 19,  1, 89)  ( 17,  1, 87)
  0  -2750.      0  -2490.      0  -799.8      1  -691.8    
   ( 22,  1, 87)  ( 22,  1, 87)  ( 22,  1, 87)  ( 22,  1, 87)


 FLOW MODEL IS TRANSIENT
 FLOW MODEL CONTAINS CONSTANT-HEAD CELLS


 MAXIMUM STEPSIZE DURING WHICH ANY PARTICLE CANNOT MOVE MORE THAN ONE CELL
 =  13.15    (WHEN MIN. R.F.=1)  AT K=  17, I=   1, J=  90

 MAXIMUM STEPSIZE WHICH MEETS STABILITY CRITERION OF THE ADVECTION TERM
 (FOR PURE FINITE-DIFFERENCE OPTION, MIXELM=0) 
 =  7.974    (WHEN MIN. R.F.=1)  AT K=  16, I=   1, J=  90


 TOTAL NUMBER OF POINT SOURCES/SINKS PRESENT IN THE FLOW MODEL =    30

 MAXIMUM STEPSIZE WHICH MEETS STABILITY CRITERION OF THE SINK & SOURCE TERM
 =  12.10    (WHEN MIN. R.F.=1)  AT K=  17, I=   1, J=  91

 MAXIMUM STEPSIZE WHICH MEETS STABILITY CRITERION OF THE DISPERSION TERM
 =  4.344    (WHEN MIN. R.F.=1)  AT K=  17, I=   1, J=  90
     1 CALLS TO GCG PACKAGE FOR TRANSPORT TIME STEP 456 IN FLOW TIME STEP   1 STRESS PERIOD   1
    10 TOTAL ITERATIONS
     1 CALLS TO GCG PACKAGE FOR TRANSPORT TIME STEP 456 IN FLOW TIME STEP   1 STRESS PERIOD   1
     8 TOTAL ITERATIONS
 
 SOLVING FOR HEAD 


     2 CALLS TO PCG ROUTINE FOR TIME STEP   1 IN STRESS PERIOD    1
     9 TOTAL ITERATIONS

 MAXIMUM HEAD CHANGE FOR EACH ITERATION (1 INDICATES THE FIRST INNER ITERATION):

    HEAD CHANGE    HEAD CHANGE    HEAD CHANGE    HEAD CHANGE    HEAD CHANGE 
   LAYER,ROW,COL  LAYER,ROW,COL  LAYER,ROW,COL  LAYER,ROW,COL  LAYER,ROW,COL
 ---------------------------------------------------------------------------
  1  0.1364E-01  0 -0.4020E-02  0 -0.3100E-02  0  0.1263E-01  0 -0.1290E-01
   ( 15,  1, 86)  ( 17,  1, 89)  (  8,  1, 12)  ( 11,  1, 50)  ( 11,  1, 50)
  0  0.1779E-02  0 -0.1190E-02  0 -0.7219E-03  1  0.7333E-03
   ( 11,  1, 50)  ( 11,  1, 57)  ( 11,  1, 66)  ( 11,  1, 70)

 MAXIMUM RESIDUAL FOR EACH ITERATION (1 INDICATES THE FIRST INNER ITERATION):

    RESIDUAL       RESIDUAL       RESIDUAL       RESIDUAL       RESIDUAL    
   LAYER,ROW,COL  LAYER,ROW,COL  LAYER,ROW,COL  LAYER,ROW,COL  LAYER,ROW,COL
 ---------------------------------------------------------------------------
  1  0.1325E+06  0 -0.9321E+05  0 -0.9227E+05  0 -0.2386E+05  0  -5024.    
   ( 21,  1, 89)  ( 19,  1, 89)  ( 19,  1, 89)  ( 19,  1, 89)  ( 17,  1, 87)
  0   2802.      0   2302.      0   716.8      1   612.4    
   ( 22,  1, 87)  ( 22,  1, 87)  ( 22,  1, 87)  ( 22,  1, 87)


 FLOW MODEL IS TRANSIENT
 FLOW MODEL CONTAINS CONSTANT-HEAD CELLS


 MAXIMUM STEPSIZE DURING WHICH ANY PARTICLE CANNOT MOVE MORE THAN ONE CELL
 =  12.84    (WHEN MIN. R.F.=1)  AT K=  17, I=   1, J=  90

 MAXIMUM STEPSIZE WHICH MEETS STABILITY CRITERION OF THE ADVECTION TERM
 (FOR PURE FINITE-DIFFERENCE OPTION, MIXELM=0) 
 =  8.025    (WHEN MIN. R.F.=1)  AT K=  16, I=   1, J=  90


 TOTAL NUMBER OF POINT SOURCES/SINKS PRESENT IN THE FLOW MODEL =    30

 MAXIMUM STEPSIZE WHICH MEETS STABILITY CRITERION OF THE SINK & SOURCE TERM
 =  12.18    (WHEN MIN. R.F.=1)  AT K=  17, I=   1, J=  91

 MAXIMUM STEPSIZE WHICH MEETS STABILITY CRITERION OF THE DISPERSION TERM
 =  4.023    (WHEN MIN. R.F.=1)  AT K=  17, I=   1, J=  90
     1 CALLS TO GCG PACKAGE FOR TRANSPORT TIME STEP 457 IN FLOW TIME STEP   1 STRESS PERIOD   1
     8 TOTAL ITERATIONS
     1 CALLS TO GCG PACKAGE FOR TRANSPORT TIME STEP 457 IN FLOW TIME STEP   1 STRESS PERIOD   1
     8 TOTAL ITERATIONS
 
 SOLVING FOR HEAD 


     2 CALLS TO PCG ROUTINE FOR TIME STEP   1 IN STRESS PERIOD    1
     9 TOTAL ITERATIONS

 MAXIMUM HEAD CHANGE FOR EACH ITERATION (1 INDICATES THE FIRST INNER ITERATION):

    HEAD CHANGE    HEAD CHANGE    HEAD CHANGE    HEAD CHANGE    HEAD CHANGE 
   LAYER,ROW,COL  LAYER,ROW,COL  LAYER,ROW,COL  LAYER,ROW,COL  LAYER,ROW,COL
 ---------------------------------------------------------------------------
  1 -0.1328E-01  0  0.3613E-02  0  0.2432E-02  0 -0.9482E-02  0  0.9611E-02
   ( 15,  1, 86)  ( 17,  1, 89)  (  8,  1, 12)  ( 11,  1, 68)  ( 11,  1, 68)
  0 -0.1877E-02  0  0.1116E-02  0  0.8423E-03  1 -0.6055E-03
   ( 11,  1, 63)  ( 11,  1, 61)  ( 11,  1, 70)  ( 11,  1, 65)

 MAXIMUM RESIDUAL FOR EACH ITERATION (1 INDICATES THE FIRST INNER ITERATION):

    RESIDUAL       RESIDUAL       RESIDUAL       RESIDUAL       RESIDUAL    
   LAYER,ROW,COL  LAYER,ROW,COL  LAYER,ROW,COL  LAYER,ROW,COL  LAYER,ROW,COL
 ---------------------------------------------------------------------------
  1 -0.1310E+06  0  0.9223E+05  0  0.9000E+05  0  0.3108E+05  0   6006.    
   ( 21,  1, 89)  ( 19,  1, 89)  ( 19,  1, 89)  ( 19,  1, 89)  ( 17,  1, 87)
  0  -2807.      0  -2553.      0  -964.6      1  -824.6    
   ( 22,  1, 87)  ( 22,  1, 87)  ( 22,  1, 87)  ( 22,  1, 87)


 FLOW MODEL IS TRANSIENT
 FLOW MODEL CONTAINS CONSTANT-HEAD CELLS


 MAXIMUM STEPSIZE DURING WHICH ANY PARTICLE CANNOT MOVE MORE THAN ONE CELL
 =  13.21    (WHEN MIN. R.F.=1)  AT K=  17, I=   1, J=  90

 MAXIMUM STEPSIZE WHICH MEETS STABILITY CRITERION OF THE ADVECTION TERM
 (FOR PURE FINITE-DIFFERENCE OPTION, MIXELM=0) 
 =  8.000    (WHEN MIN. R.F.=1)  AT K=  16, I=   1, J=  90


 TOTAL NUMBER OF POINT SOURCES/SINKS PRESENT IN THE FLOW MODEL =    30

 MAXIMUM STEPSIZE WHICH MEETS STABILITY CRITERION OF THE SINK & SOURCE TERM
 =  12.17    (WHEN MIN. R.F.=1)  AT K=  17, I=   1, J=  91

 MAXIMUM STEPSIZE WHICH MEETS STABILITY CRITERION OF THE DISPERSION TERM
 =  4.365    (WHEN MIN. R.F.=1)  AT K=  17, I=   1, J=  90
     1 CALLS TO GCG PACKAGE FOR TRANSPORT TIME STEP 458 IN FLOW TIME STEP   1 STRESS PERIOD   1
     9 TOTAL ITERATIONS
     1 CALLS TO GCG PACKAGE FOR TRANSPORT TIME STEP 458 IN FLOW TIME STEP   1 STRESS PERIOD   1
     8 TOTAL ITERATIONS
 
 SOLVING FOR HEAD 


     2 CALLS TO PCG ROUTINE FOR TIME STEP   1 IN STRESS PERIOD    1
     8 TOTAL ITERATIONS

 MAXIMUM HEAD CHANGE FOR EACH ITERATION (1 INDICATES THE FIRST INNER ITERATION):

    HEAD CHANGE    HEAD CHANGE    HEAD CHANGE    HEAD CHANGE    HEAD CHANGE 
   LAYER,ROW,COL  LAYER,ROW,COL  LAYER,ROW,COL  LAYER,ROW,COL  LAYER,ROW,COL
 ---------------------------------------------------------------------------
  1  0.1353E-01  0 -0.3704E-02  0 -0.2573E-02  0 -0.1008E-01  0  0.9996E-02
   ( 15,  1, 86)  ( 17,  1, 89)  (  8,  1, 12)  ( 11,  1, 56)  ( 11,  1, 56)
  0  0.1399E-02  0  0.8455E-03  1 -0.6654E-03
   ( 11,  1, 42)  ( 11,  1, 64)  ( 11,  1, 65)

 MAXIMUM RESIDUAL FOR EACH ITERATION (1 INDICATES THE FIRST INNER ITERATION):

    RESIDUAL       RESIDUAL       RESIDUAL       RESIDUAL       RESIDUAL    
   LAYER,ROW,COL  LAYER,ROW,COL  LAYER,ROW,COL  LAYER,ROW,COL  LAYER,ROW,COL
 ---------------------------------------------------------------------------
  1  0.1316E+06  0 -0.9175E+05  0 -0.9061E+05  0 -0.2798E+05  0  -5428.    
   ( 21,  1, 89)  ( 19,  1, 89)  ( 19,  1, 89)  ( 19,  1, 89)  ( 17,  1, 87)
  0   2877.      0   2615.      1   2012.    
   ( 22,  1, 87)  ( 22,  1, 87)  ( 22,  1, 87)


 FLOW MODEL IS TRANSIENT
 FLOW MODEL CONTAINS CONSTANT-HEAD CELLS


 MAXIMUM STEPSIZE DURING WHICH ANY PARTICLE CANNOT MOVE MORE THAN ONE CELL
 =  12.86    (WHEN MIN. R.F.=1)  AT K=  17, I=   1, J=  90

 MAXIMUM STEPSIZE WHICH MEETS STABILITY CRITERION OF THE ADVECTION TERM
 (FOR PURE FINITE-DIFFERENCE OPTION, MIXELM=0) 
 =  8.030    (WHEN MIN. R.F.=1)  AT K=  16, I=   1, J=  90


 TOTAL NUMBER OF POINT SOURCES/SINKS PRESENT IN THE FLOW MODEL =    30

 MAXIMUM STEPSIZE WHICH MEETS STABILITY CRITERION OF THE SINK & SOURCE TERM
 =  12.21    (WHEN MIN. R.F.=1)  AT K=  17, I=   1, J=  91

 MAXIMUM STEPSIZE WHICH MEETS STABILITY CRITERION OF THE DISPERSION TERM
 =  4.034    (WHEN MIN. R.F.=1)  AT K=  17, I=   1, J=  90
     1 CALLS TO GCG PACKAGE FOR TRANSPORT TIME STEP 459 IN FLOW TIME STEP   1 STRESS PERIOD   1
     8 TOTAL ITERATIONS
     1 CALLS TO GCG PACKAGE FOR TRANSPORT TIME STEP 459 IN FLOW TIME STEP   1 STRESS PERIOD   1
     8 TOTAL ITERATIONS
 
 SOLVING FOR HEAD 


     2 CALLS TO PCG ROUTINE FOR TIME STEP   1 IN STRESS PERIOD    1
     9 TOTAL ITERATIONS

 MAXIMUM HEAD CHANGE FOR EACH ITERATION (1 INDICATES THE FIRST INNER ITERATION):

    HEAD CHANGE    HEAD CHANGE    HEAD CHANGE    HEAD CHANGE    HEAD CHANGE 
   LAYER,ROW,COL  LAYER,ROW,COL  LAYER,ROW,COL  LAYER,ROW,COL  LAYER,ROW,COL
 ---------------------------------------------------------------------------
  1 -0.1365E-01  0 -0.7896E-02  0  0.3562E-02  0  0.9181E-02  0 -0.5864E-02
   ( 15,  1, 86)  ( 11,  1, 65)  (  7,  1, 12)  ( 11,  1, 65)  (  8,  1, 54)
  0  0.3815E-02  0 -0.1451E-02  0  0.9183E-03  1 -0.7463E-03
   ( 11,  1, 57)  ( 11,  1, 56)  ( 11,  1, 51)  ( 11,  1, 51)

 MAXIMUM RESIDUAL FOR EACH ITERATION (1 INDICATES THE FIRST INNER ITERATION):

    RESIDUAL       RESIDUAL       RESIDUAL       RESIDUAL       RESIDUAL    
   LAYER,ROW,COL  LAYER,ROW,COL  LAYER,ROW,COL  LAYER,ROW,COL  LAYER,ROW,COL
 ---------------------------------------------------------------------------
  1 -0.1359E+06  0  0.9658E+05  0  0.9564E+05  0  0.7941E+05  0   6457.    
   ( 21,  1, 89)  ( 19,  1, 89)  ( 19,  1, 89)  ( 19,  1, 89)  ( 17,  1, 87)
  0  -2978.      0  -2585.      0  -1692.      1  -1488.    
   ( 17,  1, 88)  ( 22,  1, 87)  ( 22,  1, 87)  ( 22,  1, 87)


 FLOW MODEL IS TRANSIENT
 FLOW MODEL CONTAINS CONSTANT-HEAD CELLS


 MAXIMUM STEPSIZE DURING WHICH ANY PARTICLE CANNOT MOVE MORE THAN ONE CELL
 =  13.15    (WHEN MIN. R.F.=1)  AT K=  17, I=   1, J=  90

 MAXIMUM STEPSIZE WHICH MEETS STABILITY CRITERION OF THE ADVECTION TERM
 (FOR PURE FINITE-DIFFERENCE OPTION, MIXELM=0) 
 =  7.976    (WHEN MIN. R.F.=1)  AT K=  16, I=   1, J=  90


 TOTAL NUMBER OF POINT SOURCES/SINKS PRESENT IN THE FLOW MODEL =    30

 MAXIMUM STEPSIZE WHICH MEETS STABILITY CRITERION OF THE SINK & SOURCE TERM
 =  12.10    (WHEN MIN. R.F.=1)  AT K=  17, I=   1, J=  91

 MAXIMUM STEPSIZE WHICH MEETS STABILITY CRITERION OF THE DISPERSION TERM
 =  4.338    (WHEN MIN. R.F.=1)  AT K=  17, I=   1, J=  90
     1 CALLS TO GCG PACKAGE FOR TRANSPORT TIME STEP 460 IN FLOW TIME STEP   1 STRESS PERIOD   1
     8 TOTAL ITERATIONS
  MAXIMUM CONCENTRATION CHANGES FOR EACH ITERATION:
  MAX. CHANGE LAYER,ROW,COL MAX. CHANGE LAYER,ROW,COL MAX. CHANGE LAYER,ROW,COL MAX. CHANGE LAYER,ROW,COL MAX. CHANGE LAYER,ROW,COL
 ------------------------------------------------------------------------------------------------------------------------------------
   0.4880E-01 ( 20,  1, 87)  0.3307E-02 ( 19,  1, 87)  0.2133E-02 ( 18,  1, 87)  0.2132E-03 ( 16,  1, 88)  0.1446E-03 ( 16,  1, 89)
   0.2714E-04 ( 16,  1, 90)  0.3444E-05 ( 21,  1, 78)  0.9970E-06 ( 15,  1, 89)
     1 CALLS TO GCG PACKAGE FOR TRANSPORT TIME STEP 460 IN FLOW TIME STEP   1 STRESS PERIOD   1
     8 TOTAL ITERATIONS
  MAXIMUM CONCENTRATION CHANGES FOR EACH ITERATION:
  MAX. CHANGE LAYER,ROW,COL MAX. CHANGE LAYER,ROW,COL MAX. CHANGE LAYER,ROW,COL MAX. CHANGE LAYER,ROW,COL MAX. CHANGE LAYER,ROW,COL
 ------------------------------------------------------------------------------------------------------------------------------------
   0.5636E-01 ( 20,  1, 87)  0.4167E-02 ( 19,  1, 87)  0.2286E-02 ( 18,  1, 87)  0.2905E-03 ( 18,  1, 87)  0.1378E-03 ( 17,  1, 89)
   0.3652E-04 ( 17,  1, 90)  0.5542E-05 ( 17,  1, 90)  0.5815E-06 ( 16,  1, 89)



 >>>>>>>>>>>>>>>>>>>>>>>>>>>>>>>>>>>>>>>>>>>>>>>>>>>>>>>FOR COMPONENT NO. 01<<<<<<<<<<<<<<<<<<<<<<<<<<<<<<<<<<<<<<<<<<<<<<<<<<<<<<<


                                            -------------------------------------------
                                                      TRANSPORT STEP NO.  460
                                            -------------------------------------------

 TOTAL ELAPSED TIME SINCE BEGINNING OF SIMULATION =   23000.00    D   
 .....................................................................

                     CUMMULATIVE MASS BUDGETS AT END OF TRANSPORT STEP  460, TIME STEP    1, STRESS PERIOD    1
                     ------------------------------------------------------------------------------------------

                                                             IN                           OUT
                                                      ----------------             ----------------
                               CONSTANT CONCENTRATION:    0.000000                    0.000000    
                                        CONSTANT HEAD:   0.9102380E+09              -0.9100365E+09
                                                WELLS:    0.000000                    0.000000    
                                             RECHARGE:    0.000000                    0.000000    
                               1ST/0TH ORDER REACTION:    0.000000                    0.000000    
                                MASS STORAGE (SOLUTE):   0.1272638E+09              -0.1274655E+09
                            ---------------------------------------------------------------------------
                                              [TOTAL]:   0.1037503E+10 KG           -0.1037503E+10 KG  

                                                          NET (IN - OUT):   -146.9078    
                                                   DISCREPANCY (PERCENT):  -0.1415975E-04



 >>>>>>>>>>>>>>>>>>>>>>>>>>>>>>>>>>>>>>>>>>>>>>>>>>>>>>>FOR COMPONENT NO. 02<<<<<<<<<<<<<<<<<<<<<<<<<<<<<<<<<<<<<<<<<<<<<<<<<<<<<<<


                                            -------------------------------------------
                                                      TRANSPORT STEP NO.  460
                                            -------------------------------------------

 TOTAL ELAPSED TIME SINCE BEGINNING OF SIMULATION =   23000.00    D   
 .....................................................................

                     CUMMULATIVE MASS BUDGETS AT END OF TRANSPORT STEP  460, TIME STEP    1, STRESS PERIOD    1
                     ------------------------------------------------------------------------------------------

                                                             IN                           OUT
                                                      ----------------             ----------------
                               CONSTANT CONCENTRATION:    0.000000                    0.000000    
                                        CONSTANT HEAD:    0.000000                  -0.1300779E+12
                                                WELLS:    0.000000                    0.000000    
                                             RECHARGE:    0.000000                    0.000000    
                               1ST/0TH ORDER REACTION:   0.3806500E+12                0.000000    
                                MASS STORAGE (SOLUTE):   0.3972729E+11              -0.2902995E+12
                            ---------------------------------------------------------------------------
                                              [TOTAL]:   0.4203779E+12 KG           -0.4203779E+12 KG  

                                                          NET (IN - OUT):   -43726.21    
                                                   DISCREPANCY (PERCENT):  -0.1040164E-04
 
 SOLVING FOR HEAD 


     2 CALLS TO PCG ROUTINE FOR TIME STEP   1 IN STRESS PERIOD    1
     8 TOTAL ITERATIONS

 MAXIMUM HEAD CHANGE FOR EACH ITERATION (1 INDICATES THE FIRST INNER ITERATION):

    HEAD CHANGE    HEAD CHANGE    HEAD CHANGE    HEAD CHANGE    HEAD CHANGE 
   LAYER,ROW,COL  LAYER,ROW,COL  LAYER,ROW,COL  LAYER,ROW,COL  LAYER,ROW,COL
 ---------------------------------------------------------------------------
  1  0.1383E-01  0 -0.4165E-02  0 -0.4237E-02  0  0.1252E-01  0 -0.1239E-01
   ( 15,  1, 86)  ( 17,  1, 89)  (  8,  1, 12)  ( 11,  1, 51)  ( 11,  1, 52)
  0  0.1616E-02  0 -0.8651E-03  1 -0.6056E-03
   ( 11,  1, 55)  ( 11,  1, 57)  ( 11,  1, 35)

 MAXIMUM RESIDUAL FOR EACH ITERATION (1 INDICATES THE FIRST INNER ITERATION):

    RESIDUAL       RESIDUAL       RESIDUAL       RESIDUAL       RESIDUAL    
   LAYER,ROW,COL  LAYER,ROW,COL  LAYER,ROW,COL  LAYER,ROW,COL  LAYER,ROW,COL
 ---------------------------------------------------------------------------
  1  0.1346E+06  0 -0.9608E+05  0 -0.9536E+05  0 -0.2474E+05  0   5122.    
   ( 21,  1, 89)  ( 19,  1, 89)  ( 19,  1, 89)  ( 19,  1, 89)  ( 17,  1, 88)
  0   2757.      0   2440.      1   1930.    
   ( 22,  1, 87)  ( 22,  1, 87)  ( 22,  1, 87)


 FLOW MODEL IS TRANSIENT
 FLOW MODEL CONTAINS CONSTANT-HEAD CELLS


 MAXIMUM STEPSIZE DURING WHICH ANY PARTICLE CANNOT MOVE MORE THAN ONE CELL
 =  12.84    (WHEN MIN. R.F.=1)  AT K=  17, I=   1, J=  90

 MAXIMUM STEPSIZE WHICH MEETS STABILITY CRITERION OF THE ADVECTION TERM
 (FOR PURE FINITE-DIFFERENCE OPTION, MIXELM=0) 
 =  8.030    (WHEN MIN. R.F.=1)  AT K=  16, I=   1, J=  90


 TOTAL NUMBER OF POINT SOURCES/SINKS PRESENT IN THE FLOW MODEL =    30

 MAXIMUM STEPSIZE WHICH MEETS STABILITY CRITERION OF THE SINK & SOURCE TERM
 =  12.19    (WHEN MIN. R.F.=1)  AT K=  17, I=   1, J=  91

 MAXIMUM STEPSIZE WHICH MEETS STABILITY CRITERION OF THE DISPERSION TERM
 =  4.022    (WHEN MIN. R.F.=1)  AT K=  17, I=   1, J=  90
     1 CALLS TO GCG PACKAGE FOR TRANSPORT TIME STEP 461 IN FLOW TIME STEP   1 STRESS PERIOD   1
     8 TOTAL ITERATIONS
     1 CALLS TO GCG PACKAGE FOR TRANSPORT TIME STEP 461 IN FLOW TIME STEP   1 STRESS PERIOD   1
     8 TOTAL ITERATIONS
 
 SOLVING FOR HEAD 


     2 CALLS TO PCG ROUTINE FOR TIME STEP   1 IN STRESS PERIOD    1
     9 TOTAL ITERATIONS

 MAXIMUM HEAD CHANGE FOR EACH ITERATION (1 INDICATES THE FIRST INNER ITERATION):

    HEAD CHANGE    HEAD CHANGE    HEAD CHANGE    HEAD CHANGE    HEAD CHANGE 
   LAYER,ROW,COL  LAYER,ROW,COL  LAYER,ROW,COL  LAYER,ROW,COL  LAYER,ROW,COL
 ---------------------------------------------------------------------------
  1 -0.1366E-01  0 -0.6439E-02  0  0.4727E-02  0  0.1203E-01  0 -0.8467E-02
   ( 15,  1, 86)  ( 11,  1, 35)  (  8,  1, 12)  ( 11,  1, 35)  ( 11,  1, 36)
  0 -0.4749E-02  0  0.1578E-02  0  0.9637E-03  1 -0.7867E-03
   ( 11,  1, 64)  ( 11,  1, 64)  ( 11,  1, 52)  ( 11,  1, 52)

 MAXIMUM RESIDUAL FOR EACH ITERATION (1 INDICATES THE FIRST INNER ITERATION):

    RESIDUAL       RESIDUAL       RESIDUAL       RESIDUAL       RESIDUAL    
   LAYER,ROW,COL  LAYER,ROW,COL  LAYER,ROW,COL  LAYER,ROW,COL  LAYER,ROW,COL
 ---------------------------------------------------------------------------
  1 -0.1329E+06  0  0.9346E+05  0  0.9285E+05  0  0.6516E+05  0   6733.    
   ( 21,  1, 89)  ( 19,  1, 89)  ( 19,  1, 89)  ( 19,  1, 89)  ( 17,  1, 87)
  0  -3213.      0  -2601.      0  -1594.      1  -1425.    
   ( 17,  1, 88)  ( 22,  1, 87)  ( 22,  1, 87)  ( 22,  1, 87)


 FLOW MODEL IS TRANSIENT
 FLOW MODEL CONTAINS CONSTANT-HEAD CELLS


 MAXIMUM STEPSIZE DURING WHICH ANY PARTICLE CANNOT MOVE MORE THAN ONE CELL
 =  13.20    (WHEN MIN. R.F.=1)  AT K=  17, I=   1, J=  90

 MAXIMUM STEPSIZE WHICH MEETS STABILITY CRITERION OF THE ADVECTION TERM
 (FOR PURE FINITE-DIFFERENCE OPTION, MIXELM=0) 
 =  7.990    (WHEN MIN. R.F.=1)  AT K=  16, I=   1, J=  90


 TOTAL NUMBER OF POINT SOURCES/SINKS PRESENT IN THE FLOW MODEL =    30

 MAXIMUM STEPSIZE WHICH MEETS STABILITY CRITERION OF THE SINK & SOURCE TERM
 =  12.14    (WHEN MIN. R.F.=1)  AT K=  17, I=   1, J=  91

 MAXIMUM STEPSIZE WHICH MEETS STABILITY CRITERION OF THE DISPERSION TERM
 =  4.366    (WHEN MIN. R.F.=1)  AT K=  17, I=   1, J=  90
     1 CALLS TO GCG PACKAGE FOR TRANSPORT TIME STEP 462 IN FLOW TIME STEP   1 STRESS PERIOD   1
     7 TOTAL ITERATIONS
     1 CALLS TO GCG PACKAGE FOR TRANSPORT TIME STEP 462 IN FLOW TIME STEP   1 STRESS PERIOD   1
     8 TOTAL ITERATIONS
 
 SOLVING FOR HEAD 


     2 CALLS TO PCG ROUTINE FOR TIME STEP   1 IN STRESS PERIOD    1
     8 TOTAL ITERATIONS

 MAXIMUM HEAD CHANGE FOR EACH ITERATION (1 INDICATES THE FIRST INNER ITERATION):

    HEAD CHANGE    HEAD CHANGE    HEAD CHANGE    HEAD CHANGE    HEAD CHANGE 
   LAYER,ROW,COL  LAYER,ROW,COL  LAYER,ROW,COL  LAYER,ROW,COL  LAYER,ROW,COL
 ---------------------------------------------------------------------------
  1  0.1364E-01  0 -0.4217E-02  0 -0.3884E-02  0  0.1163E-01  0 -0.1137E-01
   ( 15,  1, 86)  ( 17,  1, 89)  (  8,  1, 12)  ( 11,  1, 52)  ( 11,  1, 52)
  0 -0.1951E-02  0  0.6183E-03  1 -0.5110E-03
   ( 11,  1, 68)  (  7,  1, 45)  (  8,  1, 45)

 MAXIMUM RESIDUAL FOR EACH ITERATION (1 INDICATES THE FIRST INNER ITERATION):

    RESIDUAL       RESIDUAL       RESIDUAL       RESIDUAL       RESIDUAL    
   LAYER,ROW,COL  LAYER,ROW,COL  LAYER,ROW,COL  LAYER,ROW,COL  LAYER,ROW,COL
 ---------------------------------------------------------------------------
  1  0.1355E+06  0 -0.9660E+05  0 -0.9579E+05  0 -0.2773E+05  0   5565.    
   ( 21,  1, 89)  ( 19,  1, 89)  ( 19,  1, 89)  ( 19,  1, 89)  ( 17,  1, 88)
  0   2745.      0   2455.      1   2021.    
   ( 22,  1, 87)  ( 22,  1, 87)  ( 22,  1, 87)


 FLOW MODEL IS TRANSIENT
 FLOW MODEL CONTAINS CONSTANT-HEAD CELLS


 MAXIMUM STEPSIZE DURING WHICH ANY PARTICLE CANNOT MOVE MORE THAN ONE CELL
 =  12.85    (WHEN MIN. R.F.=1)  AT K=  17, I=   1, J=  90

 MAXIMUM STEPSIZE WHICH MEETS STABILITY CRITERION OF THE ADVECTION TERM
 (FOR PURE FINITE-DIFFERENCE OPTION, MIXELM=0) 
 =  8.035    (WHEN MIN. R.F.=1)  AT K=  16, I=   1, J=  90


 TOTAL NUMBER OF POINT SOURCES/SINKS PRESENT IN THE FLOW MODEL =    30

 MAXIMUM STEPSIZE WHICH MEETS STABILITY CRITERION OF THE SINK & SOURCE TERM
 =  12.21    (WHEN MIN. R.F.=1)  AT K=  17, I=   1, J=  91

 MAXIMUM STEPSIZE WHICH MEETS STABILITY CRITERION OF THE DISPERSION TERM
 =  4.024    (WHEN MIN. R.F.=1)  AT K=  17, I=   1, J=  90
     1 CALLS TO GCG PACKAGE FOR TRANSPORT TIME STEP 463 IN FLOW TIME STEP   1 STRESS PERIOD   1
     8 TOTAL ITERATIONS
     1 CALLS TO GCG PACKAGE FOR TRANSPORT TIME STEP 463 IN FLOW TIME STEP   1 STRESS PERIOD   1
     8 TOTAL ITERATIONS
 
 SOLVING FOR HEAD 


     2 CALLS TO PCG ROUTINE FOR TIME STEP   1 IN STRESS PERIOD    1
     9 TOTAL ITERATIONS

 MAXIMUM HEAD CHANGE FOR EACH ITERATION (1 INDICATES THE FIRST INNER ITERATION):

    HEAD CHANGE    HEAD CHANGE    HEAD CHANGE    HEAD CHANGE    HEAD CHANGE 
   LAYER,ROW,COL  LAYER,ROW,COL  LAYER,ROW,COL  LAYER,ROW,COL  LAYER,ROW,COL
 ---------------------------------------------------------------------------
  1 -0.1378E-01  0 -0.8402E-02  0  0.4968E-02  0  0.9705E-02  0 -0.6525E-02
   ( 15,  1, 86)  (  6,  1, 43)  (  7,  1, 12)  (  7,  1, 45)  (  7,  1, 46)
  0  0.3656E-02  0  0.1592E-02  0  0.6545E-03  1 -0.5771E-03
   ( 11,  1, 68)  ( 11,  1, 53)  ( 11,  1, 64)  ( 11,  1, 63)

 MAXIMUM RESIDUAL FOR EACH ITERATION (1 INDICATES THE FIRST INNER ITERATION):

    RESIDUAL       RESIDUAL       RESIDUAL       RESIDUAL       RESIDUAL    
   LAYER,ROW,COL  LAYER,ROW,COL  LAYER,ROW,COL  LAYER,ROW,COL  LAYER,ROW,COL
 ---------------------------------------------------------------------------
  1 -0.1349E+06  0  0.9486E+05  0  0.9430E+05  0  0.7648E+05  0   6250.    
   ( 21,  1, 89)  ( 19,  1, 89)  ( 19,  1, 89)  ( 19,  1, 89)  ( 17,  1, 87)
  0  -2989.      0  -2593.      0  -800.5      1  -688.1    
   ( 17,  1, 88)  ( 22,  1, 87)  ( 22,  1, 87)  ( 22,  1, 87)


 FLOW MODEL IS TRANSIENT
 FLOW MODEL CONTAINS CONSTANT-HEAD CELLS


 MAXIMUM STEPSIZE DURING WHICH ANY PARTICLE CANNOT MOVE MORE THAN ONE CELL
 =  13.19    (WHEN MIN. R.F.=1)  AT K=  17, I=   1, J=  90

 MAXIMUM STEPSIZE WHICH MEETS STABILITY CRITERION OF THE ADVECTION TERM
 (FOR PURE FINITE-DIFFERENCE OPTION, MIXELM=0) 
 =  7.987    (WHEN MIN. R.F.=1)  AT K=  16, I=   1, J=  90


 TOTAL NUMBER OF POINT SOURCES/SINKS PRESENT IN THE FLOW MODEL =    30

 MAXIMUM STEPSIZE WHICH MEETS STABILITY CRITERION OF THE SINK & SOURCE TERM
 =  12.13    (WHEN MIN. R.F.=1)  AT K=  17, I=   1, J=  91

 MAXIMUM STEPSIZE WHICH MEETS STABILITY CRITERION OF THE DISPERSION TERM
 =  4.366    (WHEN MIN. R.F.=1)  AT K=  17, I=   1, J=  90
     1 CALLS TO GCG PACKAGE FOR TRANSPORT TIME STEP 464 IN FLOW TIME STEP   1 STRESS PERIOD   1
     9 TOTAL ITERATIONS
     1 CALLS TO GCG PACKAGE FOR TRANSPORT TIME STEP 464 IN FLOW TIME STEP   1 STRESS PERIOD   1
     8 TOTAL ITERATIONS
 
 SOLVING FOR HEAD 


     2 CALLS TO PCG ROUTINE FOR TIME STEP   1 IN STRESS PERIOD    1
     9 TOTAL ITERATIONS

 MAXIMUM HEAD CHANGE FOR EACH ITERATION (1 INDICATES THE FIRST INNER ITERATION):

    HEAD CHANGE    HEAD CHANGE    HEAD CHANGE    HEAD CHANGE    HEAD CHANGE 
   LAYER,ROW,COL  LAYER,ROW,COL  LAYER,ROW,COL  LAYER,ROW,COL  LAYER,ROW,COL
 ---------------------------------------------------------------------------
  1  0.1347E-01  0 -0.4095E-02  0 -0.2444E-02  0  0.1030E-01  0 -0.1119E-01
   ( 15,  1, 86)  ( 17,  1, 89)  (  8,  1, 12)  ( 11,  1, 63)  ( 11,  1, 63)
  0  0.2152E-02  0  0.1018E-02  0 -0.9348E-03  1  0.5065E-03
   ( 11,  1, 63)  ( 11,  1, 51)  ( 11,  1, 51)  ( 11,  1, 59)

 MAXIMUM RESIDUAL FOR EACH ITERATION (1 INDICATES THE FIRST INNER ITERATION):

    RESIDUAL       RESIDUAL       RESIDUAL       RESIDUAL       RESIDUAL    
   LAYER,ROW,COL  LAYER,ROW,COL  LAYER,ROW,COL  LAYER,ROW,COL  LAYER,ROW,COL
 ---------------------------------------------------------------------------
  1  0.1353E+06  0 -0.9599E+05  0 -0.9458E+05  0 -0.1929E+05  0   4686.    
   ( 21,  1, 89)  ( 19,  1, 89)  ( 19,  1, 89)  ( 19,  1, 89)  ( 17,  1, 88)
  0   2746.      0   2324.      0   708.8      1   596.5    
   ( 22,  1, 87)  ( 22,  1, 87)  ( 22,  1, 87)  ( 22,  1, 87)


 FLOW MODEL IS TRANSIENT
 FLOW MODEL CONTAINS CONSTANT-HEAD CELLS


 MAXIMUM STEPSIZE DURING WHICH ANY PARTICLE CANNOT MOVE MORE THAN ONE CELL
 =  12.83    (WHEN MIN. R.F.=1)  AT K=  17, I=   1, J=  90

 MAXIMUM STEPSIZE WHICH MEETS STABILITY CRITERION OF THE ADVECTION TERM
 (FOR PURE FINITE-DIFFERENCE OPTION, MIXELM=0) 
 =  8.028    (WHEN MIN. R.F.=1)  AT K=  16, I=   1, J=  90


 TOTAL NUMBER OF POINT SOURCES/SINKS PRESENT IN THE FLOW MODEL =    30

 MAXIMUM STEPSIZE WHICH MEETS STABILITY CRITERION OF THE SINK & SOURCE TERM
 =  12.19    (WHEN MIN. R.F.=1)  AT K=  17, I=   1, J=  91

 MAXIMUM STEPSIZE WHICH MEETS STABILITY CRITERION OF THE DISPERSION TERM
 =  4.019    (WHEN MIN. R.F.=1)  AT K=  17, I=   1, J=  90
     1 CALLS TO GCG PACKAGE FOR TRANSPORT TIME STEP 465 IN FLOW TIME STEP   1 STRESS PERIOD   1
     8 TOTAL ITERATIONS
  MAXIMUM CONCENTRATION CHANGES FOR EACH ITERATION:
  MAX. CHANGE LAYER,ROW,COL MAX. CHANGE LAYER,ROW,COL MAX. CHANGE LAYER,ROW,COL MAX. CHANGE LAYER,ROW,COL MAX. CHANGE LAYER,ROW,COL
 ------------------------------------------------------------------------------------------------------------------------------------
   0.5284E-01 ( 20,  1, 87)  0.4296E-02 ( 19,  1, 89)  0.2114E-02 ( 17,  1, 86)  0.4690E-03 ( 20,  1, 89)  0.9284E-04 ( 16,  1, 89)
   0.2046E-04 ( 20,  1, 89)  0.2066E-04 ( 16,  1, 90)  0.7528E-06 ( 17,  1, 90)
     1 CALLS TO GCG PACKAGE FOR TRANSPORT TIME STEP 465 IN FLOW TIME STEP   1 STRESS PERIOD   1
     8 TOTAL ITERATIONS
  MAXIMUM CONCENTRATION CHANGES FOR EACH ITERATION:
  MAX. CHANGE LAYER,ROW,COL MAX. CHANGE LAYER,ROW,COL MAX. CHANGE LAYER,ROW,COL MAX. CHANGE LAYER,ROW,COL MAX. CHANGE LAYER,ROW,COL
 ------------------------------------------------------------------------------------------------------------------------------------
   0.6049E-01 ( 20,  1, 87)  0.5046E-02 ( 19,  1, 89)  0.2027E-02 ( 18,  1, 86)  0.4351E-03 ( 23,  1, 87)  0.1200E-03 ( 16,  1, 89)
   0.2601E-04 ( 23,  1, 87)  0.1807E-04 ( 17,  1, 90)  0.8601E-06 ( 17,  1, 90)
 
 SOLVING FOR HEAD 


     3 CALLS TO PCG ROUTINE FOR TIME STEP   1 IN STRESS PERIOD    1
    11 TOTAL ITERATIONS

 MAXIMUM HEAD CHANGE FOR EACH ITERATION (1 INDICATES THE FIRST INNER ITERATION):

    HEAD CHANGE    HEAD CHANGE    HEAD CHANGE    HEAD CHANGE    HEAD CHANGE 
   LAYER,ROW,COL  LAYER,ROW,COL  LAYER,ROW,COL  LAYER,ROW,COL  LAYER,ROW,COL
 ---------------------------------------------------------------------------
  1 -0.1336E-01  0  0.3714E-02  0  0.2491E-02  0  0.9908E-02  0 -0.9589E-02
   ( 15,  1, 86)  ( 17,  1, 89)  (  8,  1, 12)  ( 11,  1, 69)  ( 11,  1, 69)
  0  0.1442E-02  0  0.1297E-02  0  0.8429E-03  1 -0.1046E-02  0 -0.2455E-03
   ( 11,  1, 59)  ( 11,  1, 70)  ( 11,  1, 70)  ( 11,  1, 70)  ( 11,  1, 65)
  1  0.1353E-03
   ( 11,  1, 70)

 MAXIMUM RESIDUAL FOR EACH ITERATION (1 INDICATES THE FIRST INNER ITERATION):

    RESIDUAL       RESIDUAL       RESIDUAL       RESIDUAL       RESIDUAL    
   LAYER,ROW,COL  LAYER,ROW,COL  LAYER,ROW,COL  LAYER,ROW,COL  LAYER,ROW,COL
 ---------------------------------------------------------------------------
  1 -0.1319E+06  0  0.9271E+05  0  0.9146E+05  0  0.3323E+05  0   6162.    
   ( 21,  1, 89)  ( 19,  1, 89)  ( 19,  1, 89)  ( 19,  1, 89)  ( 17,  1, 87)
  0  -2811.      0  -2513.      0  -890.9      1  -758.2      0  -606.7    
   ( 22,  1, 87)  ( 22,  1, 87)  ( 22,  1, 87)  ( 22,  1, 87)  ( 22,  1, 87)
  1  -561.0    
   ( 22,  1, 87)


 FLOW MODEL IS TRANSIENT
 FLOW MODEL CONTAINS CONSTANT-HEAD CELLS


 MAXIMUM STEPSIZE DURING WHICH ANY PARTICLE CANNOT MOVE MORE THAN ONE CELL
 =  13.23    (WHEN MIN. R.F.=1)  AT K=  17, I=   1, J=  90

 MAXIMUM STEPSIZE WHICH MEETS STABILITY CRITERION OF THE ADVECTION TERM
 (FOR PURE FINITE-DIFFERENCE OPTION, MIXELM=0) 
 =  8.005    (WHEN MIN. R.F.=1)  AT K=  16, I=   1, J=  90


 TOTAL NUMBER OF POINT SOURCES/SINKS PRESENT IN THE FLOW MODEL =    30

 MAXIMUM STEPSIZE WHICH MEETS STABILITY CRITERION OF THE SINK & SOURCE TERM
 =  12.18    (WHEN MIN. R.F.=1)  AT K=  17, I=   1, J=  91

 MAXIMUM STEPSIZE WHICH MEETS STABILITY CRITERION OF THE DISPERSION TERM
 =  4.375    (WHEN MIN. R.F.=1)  AT K=  17, I=   1, J=  90
     1 CALLS TO GCG PACKAGE FOR TRANSPORT TIME STEP 466 IN FLOW TIME STEP   1 STRESS PERIOD   1
     9 TOTAL ITERATIONS
     1 CALLS TO GCG PACKAGE FOR TRANSPORT TIME STEP 466 IN FLOW TIME STEP   1 STRESS PERIOD   1
     8 TOTAL ITERATIONS
 
 SOLVING FOR HEAD 


     2 CALLS TO PCG ROUTINE FOR TIME STEP   1 IN STRESS PERIOD    1
     9 TOTAL ITERATIONS

 MAXIMUM HEAD CHANGE FOR EACH ITERATION (1 INDICATES THE FIRST INNER ITERATION):

    HEAD CHANGE    HEAD CHANGE    HEAD CHANGE    HEAD CHANGE    HEAD CHANGE 
   LAYER,ROW,COL  LAYER,ROW,COL  LAYER,ROW,COL  LAYER,ROW,COL  LAYER,ROW,COL
 ---------------------------------------------------------------------------
  1  0.1345E-01  0 -0.2018E-01  0  0.1765E-01  0 -0.2276E-02  0  0.1712E-02
   ( 15,  1, 86)  (  8,  1, 12)  (  8,  1, 12)  ( 15,  1, 87)  ( 11,  1, 67)
  0  0.1094E-02  0 -0.1052E-02  0  0.9416E-03  1  0.2066E-03
   ( 11,  1, 54)  ( 11,  1, 70)  ( 11,  1, 70)  ( 11,  1, 53)

 MAXIMUM RESIDUAL FOR EACH ITERATION (1 INDICATES THE FIRST INNER ITERATION):

    RESIDUAL       RESIDUAL       RESIDUAL       RESIDUAL       RESIDUAL    
   LAYER,ROW,COL  LAYER,ROW,COL  LAYER,ROW,COL  LAYER,ROW,COL  LAYER,ROW,COL
 ---------------------------------------------------------------------------
  1  0.1320E+06  0  0.1008E+06  0 -0.9092E+05  0 -0.1171E+05  0   3162.    
   ( 21,  1, 89)  ( 21,  1, 89)  ( 19,  1, 89)  ( 17,  1, 87)  ( 22,  1, 87)
  0   2864.      0   1347.      0   473.8      1   435.5    
   ( 22,  1, 87)  ( 22,  1, 87)  ( 22,  1, 87)  ( 22,  1, 87)


 FLOW MODEL IS TRANSIENT
 FLOW MODEL CONTAINS CONSTANT-HEAD CELLS


 MAXIMUM STEPSIZE DURING WHICH ANY PARTICLE CANNOT MOVE MORE THAN ONE CELL
 =  12.86    (WHEN MIN. R.F.=1)  AT K=  17, I=   1, J=  90

 MAXIMUM STEPSIZE WHICH MEETS STABILITY CRITERION OF THE ADVECTION TERM
 (FOR PURE FINITE-DIFFERENCE OPTION, MIXELM=0) 
 =  8.036    (WHEN MIN. R.F.=1)  AT K=  16, I=   1, J=  90


 TOTAL NUMBER OF POINT SOURCES/SINKS PRESENT IN THE FLOW MODEL =    30

 MAXIMUM STEPSIZE WHICH MEETS STABILITY CRITERION OF THE SINK & SOURCE TERM
 =  12.22    (WHEN MIN. R.F.=1)  AT K=  17, I=   1, J=  91

 MAXIMUM STEPSIZE WHICH MEETS STABILITY CRITERION OF THE DISPERSION TERM
 =  4.036    (WHEN MIN. R.F.=1)  AT K=  17, I=   1, J=  90
     1 CALLS TO GCG PACKAGE FOR TRANSPORT TIME STEP 467 IN FLOW TIME STEP   1 STRESS PERIOD   1
     8 TOTAL ITERATIONS
     1 CALLS TO GCG PACKAGE FOR TRANSPORT TIME STEP 467 IN FLOW TIME STEP   1 STRESS PERIOD   1
     8 TOTAL ITERATIONS
 
 SOLVING FOR HEAD 


     2 CALLS TO PCG ROUTINE FOR TIME STEP   1 IN STRESS PERIOD    1
     9 TOTAL ITERATIONS

 MAXIMUM HEAD CHANGE FOR EACH ITERATION (1 INDICATES THE FIRST INNER ITERATION):

    HEAD CHANGE    HEAD CHANGE    HEAD CHANGE    HEAD CHANGE    HEAD CHANGE 
   LAYER,ROW,COL  LAYER,ROW,COL  LAYER,ROW,COL  LAYER,ROW,COL  LAYER,ROW,COL
 ---------------------------------------------------------------------------
  1 -0.1334E-01  0  0.3593E-02  0  0.2566E-02  0  0.4267E-02  0 -0.5765E-02
   ( 15,  1, 86)  ( 17,  1, 89)  (  8,  1, 12)  ( 11,  1, 70)  (  7,  1, 53)
  0  0.1512E-02  0  0.1579E-02  0 -0.5824E-03  1 -0.4970E-03
   (  9,  1, 53)  ( 11,  1, 70)  ( 11,  1, 69)  ( 11,  1, 55)

 MAXIMUM RESIDUAL FOR EACH ITERATION (1 INDICATES THE FIRST INNER ITERATION):

    RESIDUAL       RESIDUAL       RESIDUAL       RESIDUAL       RESIDUAL    
   LAYER,ROW,COL  LAYER,ROW,COL  LAYER,ROW,COL  LAYER,ROW,COL  LAYER,ROW,COL
 ---------------------------------------------------------------------------
  1 -0.1338E+06  0  0.9455E+05  0  0.9131E+05  0  0.1639E+05  0   5030.    
   ( 21,  1, 89)  ( 19,  1, 89)  ( 19,  1, 89)  ( 19,  1, 89)  ( 17,  1, 87)
  0  -2816.      0  -1765.      0  -725.5      1  -627.6    
   ( 22,  1, 87)  ( 22,  1, 87)  ( 22,  1, 87)  ( 22,  1, 87)


 FLOW MODEL IS TRANSIENT
 FLOW MODEL CONTAINS CONSTANT-HEAD CELLS


 MAXIMUM STEPSIZE DURING WHICH ANY PARTICLE CANNOT MOVE MORE THAN ONE CELL
 =  13.21    (WHEN MIN. R.F.=1)  AT K=  17, I=   1, J=  90

 MAXIMUM STEPSIZE WHICH MEETS STABILITY CRITERION OF THE ADVECTION TERM
 (FOR PURE FINITE-DIFFERENCE OPTION, MIXELM=0) 
 =  8.003    (WHEN MIN. R.F.=1)  AT K=  16, I=   1, J=  90


 TOTAL NUMBER OF POINT SOURCES/SINKS PRESENT IN THE FLOW MODEL =    30

 MAXIMUM STEPSIZE WHICH MEETS STABILITY CRITERION OF THE SINK & SOURCE TERM
 =  12.19    (WHEN MIN. R.F.=1)  AT K=  17, I=   1, J=  91

 MAXIMUM STEPSIZE WHICH MEETS STABILITY CRITERION OF THE DISPERSION TERM
 =  4.362    (WHEN MIN. R.F.=1)  AT K=  17, I=   1, J=  90
     1 CALLS TO GCG PACKAGE FOR TRANSPORT TIME STEP 468 IN FLOW TIME STEP   1 STRESS PERIOD   1
     9 TOTAL ITERATIONS
     1 CALLS TO GCG PACKAGE FOR TRANSPORT TIME STEP 468 IN FLOW TIME STEP   1 STRESS PERIOD   1
     8 TOTAL ITERATIONS
 
 SOLVING FOR HEAD 


     2 CALLS TO PCG ROUTINE FOR TIME STEP   1 IN STRESS PERIOD    1
     8 TOTAL ITERATIONS

 MAXIMUM HEAD CHANGE FOR EACH ITERATION (1 INDICATES THE FIRST INNER ITERATION):

    HEAD CHANGE    HEAD CHANGE    HEAD CHANGE    HEAD CHANGE    HEAD CHANGE 
   LAYER,ROW,COL  LAYER,ROW,COL  LAYER,ROW,COL  LAYER,ROW,COL  LAYER,ROW,COL
 ---------------------------------------------------------------------------
  1  0.1347E-01  0 -0.3544E-02  0 -0.2330E-02  0  0.1020E-01  0 -0.1050E-01
   ( 15,  1, 86)  ( 17,  1, 89)  (  8,  1, 12)  ( 11,  1, 54)  ( 11,  1, 54)
  0  0.1440E-02  0 -0.9481E-03  1  0.5727E-03
   ( 11,  1, 54)  ( 11,  1, 64)  ( 11,  1, 65)

 MAXIMUM RESIDUAL FOR EACH ITERATION (1 INDICATES THE FIRST INNER ITERATION):

    RESIDUAL       RESIDUAL       RESIDUAL       RESIDUAL       RESIDUAL    
   LAYER,ROW,COL  LAYER,ROW,COL  LAYER,ROW,COL  LAYER,ROW,COL  LAYER,ROW,COL
 ---------------------------------------------------------------------------
  1  0.1310E+06  0 -0.9118E+05  0 -0.8930E+05  0 -0.2485E+05  0  -5352.    
   ( 21,  1, 89)  ( 19,  1, 89)  ( 19,  1, 89)  ( 19,  1, 89)  ( 17,  1, 87)
  0   2921.      0   2215.      1   1984.    
   ( 22,  1, 87)  ( 22,  1, 87)  ( 22,  1, 87)


 FLOW MODEL IS TRANSIENT
 FLOW MODEL CONTAINS CONSTANT-HEAD CELLS


 MAXIMUM STEPSIZE DURING WHICH ANY PARTICLE CANNOT MOVE MORE THAN ONE CELL
 =  12.85    (WHEN MIN. R.F.=1)  AT K=  17, I=   1, J=  90

 MAXIMUM STEPSIZE WHICH MEETS STABILITY CRITERION OF THE ADVECTION TERM
 (FOR PURE FINITE-DIFFERENCE OPTION, MIXELM=0) 
 =  8.028    (WHEN MIN. R.F.=1)  AT K=  16, I=   1, J=  90


 TOTAL NUMBER OF POINT SOURCES/SINKS PRESENT IN THE FLOW MODEL =    30

 MAXIMUM STEPSIZE WHICH MEETS STABILITY CRITERION OF THE SINK & SOURCE TERM
 =  12.20    (WHEN MIN. R.F.=1)  AT K=  17, I=   1, J=  91

 MAXIMUM STEPSIZE WHICH MEETS STABILITY CRITERION OF THE DISPERSION TERM
 =  4.032    (WHEN MIN. R.F.=1)  AT K=  17, I=   1, J=  90
     1 CALLS TO GCG PACKAGE FOR TRANSPORT TIME STEP 469 IN FLOW TIME STEP   1 STRESS PERIOD   1
     8 TOTAL ITERATIONS
     1 CALLS TO GCG PACKAGE FOR TRANSPORT TIME STEP 469 IN FLOW TIME STEP   1 STRESS PERIOD   1
     8 TOTAL ITERATIONS
 
 SOLVING FOR HEAD 


     2 CALLS TO PCG ROUTINE FOR TIME STEP   1 IN STRESS PERIOD    1
     9 TOTAL ITERATIONS

 MAXIMUM HEAD CHANGE FOR EACH ITERATION (1 INDICATES THE FIRST INNER ITERATION):

    HEAD CHANGE    HEAD CHANGE    HEAD CHANGE    HEAD CHANGE    HEAD CHANGE 
   LAYER,ROW,COL  LAYER,ROW,COL  LAYER,ROW,COL  LAYER,ROW,COL  LAYER,ROW,COL
 ---------------------------------------------------------------------------
  1 -0.1366E-01  0  0.3952E-02  0  0.3473E-02  0 -0.9033E-02  0  0.8415E-02
   ( 15,  1, 86)  ( 17,  1, 89)  (  8,  1, 12)  ( 10,  1, 54)  ( 10,  1, 53)
  0 -0.1034E-02  0  0.1043E-02  0  0.7345E-03  1 -0.9379E-03
   (  9,  1, 50)  ( 11,  1, 56)  ( 11,  1, 70)  ( 11,  1, 70)

 MAXIMUM RESIDUAL FOR EACH ITERATION (1 INDICATES THE FIRST INNER ITERATION):

    RESIDUAL       RESIDUAL       RESIDUAL       RESIDUAL       RESIDUAL    
   LAYER,ROW,COL  LAYER,ROW,COL  LAYER,ROW,COL  LAYER,ROW,COL  LAYER,ROW,COL
 ---------------------------------------------------------------------------
  1 -0.1347E+06  0  0.9576E+05  0  0.9486E+05  0  0.5176E+05  0   5814.    
   ( 21,  1, 89)  ( 19,  1, 89)  ( 19,  1, 89)  ( 19,  1, 89)  ( 17,  1, 87)
  0  -2844.      0  -2461.      0  -819.2      1  -681.9    
   ( 22,  1, 87)  ( 22,  1, 87)  ( 22,  1, 87)  ( 22,  1, 87)


 FLOW MODEL IS TRANSIENT
 FLOW MODEL CONTAINS CONSTANT-HEAD CELLS


 MAXIMUM STEPSIZE DURING WHICH ANY PARTICLE CANNOT MOVE MORE THAN ONE CELL
 =  13.14    (WHEN MIN. R.F.=1)  AT K=  17, I=   1, J=  90

 MAXIMUM STEPSIZE WHICH MEETS STABILITY CRITERION OF THE ADVECTION TERM
 (FOR PURE FINITE-DIFFERENCE OPTION, MIXELM=0) 
 =  7.974    (WHEN MIN. R.F.=1)  AT K=  16, I=   1, J=  90


 TOTAL NUMBER OF POINT SOURCES/SINKS PRESENT IN THE FLOW MODEL =    30

 MAXIMUM STEPSIZE WHICH MEETS STABILITY CRITERION OF THE SINK & SOURCE TERM
 =  12.09    (WHEN MIN. R.F.=1)  AT K=  17, I=   1, J=  91

 MAXIMUM STEPSIZE WHICH MEETS STABILITY CRITERION OF THE DISPERSION TERM
 =  4.330    (WHEN MIN. R.F.=1)  AT K=  17, I=   1, J=  90
     1 CALLS TO GCG PACKAGE FOR TRANSPORT TIME STEP 470 IN FLOW TIME STEP   1 STRESS PERIOD   1
     9 TOTAL ITERATIONS
  MAXIMUM CONCENTRATION CHANGES FOR EACH ITERATION:
  MAX. CHANGE LAYER,ROW,COL MAX. CHANGE LAYER,ROW,COL MAX. CHANGE LAYER,ROW,COL MAX. CHANGE LAYER,ROW,COL MAX. CHANGE LAYER,ROW,COL
 ------------------------------------------------------------------------------------------------------------------------------------
   0.4917E-01 ( 20,  1, 87)  0.3322E-02 ( 19,  1, 87)  0.2159E-02 ( 18,  1, 87)  0.2129E-03 ( 16,  1, 88)  0.1421E-03 ( 16,  1, 89)
   0.2830E-04 ( 16,  1, 90)  0.2847E-05 ( 21,  1, 78)  0.1890E-05 ( 21,  1, 78)  0.8626E-06 ( 16,  1, 89)
     1 CALLS TO GCG PACKAGE FOR TRANSPORT TIME STEP 470 IN FLOW TIME STEP   1 STRESS PERIOD   1
     8 TOTAL ITERATIONS
  MAXIMUM CONCENTRATION CHANGES FOR EACH ITERATION:
  MAX. CHANGE LAYER,ROW,COL MAX. CHANGE LAYER,ROW,COL MAX. CHANGE LAYER,ROW,COL MAX. CHANGE LAYER,ROW,COL MAX. CHANGE LAYER,ROW,COL
 ------------------------------------------------------------------------------------------------------------------------------------
   0.5628E-01 ( 20,  1, 87)  0.4137E-02 ( 19,  1, 87)  0.2278E-02 ( 18,  1, 87)  0.2821E-03 ( 18,  1, 87)  0.1403E-03 ( 17,  1, 89)
   0.3629E-04 ( 17,  1, 90)  0.5482E-05 ( 17,  1, 90)  0.5923E-06 ( 16,  1, 89)



 >>>>>>>>>>>>>>>>>>>>>>>>>>>>>>>>>>>>>>>>>>>>>>>>>>>>>>>FOR COMPONENT NO. 01<<<<<<<<<<<<<<<<<<<<<<<<<<<<<<<<<<<<<<<<<<<<<<<<<<<<<<<


                                            -------------------------------------------
                                                      TRANSPORT STEP NO.  470
                                            -------------------------------------------

 TOTAL ELAPSED TIME SINCE BEGINNING OF SIMULATION =   23500.00    D   
 .....................................................................

                     CUMMULATIVE MASS BUDGETS AT END OF TRANSPORT STEP  470, TIME STEP    1, STRESS PERIOD    1
                     ------------------------------------------------------------------------------------------

                                                             IN                           OUT
                                                      ----------------             ----------------
                               CONSTANT CONCENTRATION:    0.000000                    0.000000    
                                        CONSTANT HEAD:   0.9300334E+09              -0.9298309E+09
                                                WELLS:    0.000000                    0.000000    
                                             RECHARGE:    0.000000                    0.000000    
                               1ST/0TH ORDER REACTION:    0.000000                    0.000000    
                                MASS STORAGE (SOLUTE):   0.1300278E+09              -0.1302304E+09
                            ---------------------------------------------------------------------------
                                              [TOTAL]:   0.1060062E+10 KG           -0.1060062E+10 KG  

                                                          NET (IN - OUT):   -149.7451    
                                                   DISCREPANCY (PERCENT):  -0.1412607E-04



 >>>>>>>>>>>>>>>>>>>>>>>>>>>>>>>>>>>>>>>>>>>>>>>>>>>>>>>FOR COMPONENT NO. 02<<<<<<<<<<<<<<<<<<<<<<<<<<<<<<<<<<<<<<<<<<<<<<<<<<<<<<<


                                            -------------------------------------------
                                                      TRANSPORT STEP NO.  470
                                            -------------------------------------------

 TOTAL ELAPSED TIME SINCE BEGINNING OF SIMULATION =   23500.00    D   
 .....................................................................

                     CUMMULATIVE MASS BUDGETS AT END OF TRANSPORT STEP  470, TIME STEP    1, STRESS PERIOD    1
                     ------------------------------------------------------------------------------------------

                                                             IN                           OUT
                                                      ----------------             ----------------
                               CONSTANT CONCENTRATION:    0.000000                    0.000000    
                                        CONSTANT HEAD:    0.000000                  -0.1349004E+12
                                                WELLS:    0.000000                    0.000000    
                                             RECHARGE:    0.000000                    0.000000    
                               1ST/0TH ORDER REACTION:   0.3889250E+12                0.000000    
                                MASS STORAGE (SOLUTE):   0.4155624E+11              -0.2955809E+12
                            ---------------------------------------------------------------------------
                                              [TOTAL]:   0.4304819E+12 KG           -0.4304819E+12 KG  

                                                          NET (IN - OUT):   -45712.69    
                                                   DISCREPANCY (PERCENT):  -0.1061896E-04
 
 SOLVING FOR HEAD 


     2 CALLS TO PCG ROUTINE FOR TIME STEP   1 IN STRESS PERIOD    1
     8 TOTAL ITERATIONS

 MAXIMUM HEAD CHANGE FOR EACH ITERATION (1 INDICATES THE FIRST INNER ITERATION):

    HEAD CHANGE    HEAD CHANGE    HEAD CHANGE    HEAD CHANGE    HEAD CHANGE 
   LAYER,ROW,COL  LAYER,ROW,COL  LAYER,ROW,COL  LAYER,ROW,COL  LAYER,ROW,COL
 ---------------------------------------------------------------------------
  1  0.1367E-01  0 -0.3916E-02  0 -0.3072E-02  0 -0.9119E-02  0  0.9889E-02
   ( 15,  1, 86)  ( 17,  1, 89)  (  8,  1, 12)  ( 11,  1, 55)  ( 11,  1, 55)
  0 -0.1342E-02  0  0.7613E-03  1 -0.6405E-03
   ( 11,  1, 56)  ( 11,  1, 69)  ( 11,  1, 69)

 MAXIMUM RESIDUAL FOR EACH ITERATION (1 INDICATES THE FIRST INNER ITERATION):

    RESIDUAL       RESIDUAL       RESIDUAL       RESIDUAL       RESIDUAL    
   LAYER,ROW,COL  LAYER,ROW,COL  LAYER,ROW,COL  LAYER,ROW,COL  LAYER,ROW,COL
 ---------------------------------------------------------------------------
  1  0.1328E+06  0 -0.9425E+05  0 -0.9328E+05  0 -0.2643E+05  0  -5223.    
   ( 21,  1, 89)  ( 19,  1, 89)  ( 19,  1, 89)  ( 19,  1, 89)  ( 17,  1, 87)
  0   2799.      0   2391.      1   2070.    
   ( 22,  1, 87)  ( 22,  1, 87)  ( 22,  1, 87)


 FLOW MODEL IS TRANSIENT
 FLOW MODEL CONTAINS CONSTANT-HEAD CELLS


 MAXIMUM STEPSIZE DURING WHICH ANY PARTICLE CANNOT MOVE MORE THAN ONE CELL
 =  12.82    (WHEN MIN. R.F.=1)  AT K=  17, I=   1, J=  90

 MAXIMUM STEPSIZE WHICH MEETS STABILITY CRITERION OF THE ADVECTION TERM
 (FOR PURE FINITE-DIFFERENCE OPTION, MIXELM=0) 
 =  8.020    (WHEN MIN. R.F.=1)  AT K=  16, I=   1, J=  90


 TOTAL NUMBER OF POINT SOURCES/SINKS PRESENT IN THE FLOW MODEL =    30

 MAXIMUM STEPSIZE WHICH MEETS STABILITY CRITERION OF THE SINK & SOURCE TERM
 =  12.17    (WHEN MIN. R.F.=1)  AT K=  17, I=   1, J=  91

 MAXIMUM STEPSIZE WHICH MEETS STABILITY CRITERION OF THE DISPERSION TERM
 =  4.017    (WHEN MIN. R.F.=1)  AT K=  17, I=   1, J=  90
     1 CALLS TO GCG PACKAGE FOR TRANSPORT TIME STEP 471 IN FLOW TIME STEP   1 STRESS PERIOD   1
     8 TOTAL ITERATIONS
     1 CALLS TO GCG PACKAGE FOR TRANSPORT TIME STEP 471 IN FLOW TIME STEP   1 STRESS PERIOD   1
     8 TOTAL ITERATIONS
 
 SOLVING FOR HEAD 


     2 CALLS TO PCG ROUTINE FOR TIME STEP   1 IN STRESS PERIOD    1
     9 TOTAL ITERATIONS

 MAXIMUM HEAD CHANGE FOR EACH ITERATION (1 INDICATES THE FIRST INNER ITERATION):

    HEAD CHANGE    HEAD CHANGE    HEAD CHANGE    HEAD CHANGE    HEAD CHANGE 
   LAYER,ROW,COL  LAYER,ROW,COL  LAYER,ROW,COL  LAYER,ROW,COL  LAYER,ROW,COL
 ---------------------------------------------------------------------------
  1 -0.1366E-01  0 -0.5288E-02  0  0.3766E-02  0  0.9374E-02  0 -0.6994E-02
   ( 15,  1, 86)  (  4,  1, 44)  (  7,  1, 12)  ( 11,  1, 68)  (  9,  1, 51)
  0  0.3689E-02  0  0.1578E-02  0  0.9076E-03  1 -0.6908E-03
   ( 11,  1, 62)  ( 11,  1, 70)  ( 11,  1, 58)  ( 11,  1, 58)

 MAXIMUM RESIDUAL FOR EACH ITERATION (1 INDICATES THE FIRST INNER ITERATION):

    RESIDUAL       RESIDUAL       RESIDUAL       RESIDUAL       RESIDUAL    
   LAYER,ROW,COL  LAYER,ROW,COL  LAYER,ROW,COL  LAYER,ROW,COL  LAYER,ROW,COL
 ---------------------------------------------------------------------------
  1 -0.1311E+06  0  0.9174E+05  0  0.9097E+05  0  0.6709E+05  0   6074.    
   ( 21,  1, 89)  ( 19,  1, 89)  ( 19,  1, 89)  ( 19,  1, 89)  ( 17,  1, 87)
  0  -2799.      0  -2605.      0  -970.6      1  -858.6    
   ( 22,  1, 87)  ( 22,  1, 87)  ( 22,  1, 87)  ( 22,  1, 87)


 FLOW MODEL IS TRANSIENT
 FLOW MODEL CONTAINS CONSTANT-HEAD CELLS


 MAXIMUM STEPSIZE DURING WHICH ANY PARTICLE CANNOT MOVE MORE THAN ONE CELL
 =  13.16    (WHEN MIN. R.F.=1)  AT K=  17, I=   1, J=  90

 MAXIMUM STEPSIZE WHICH MEETS STABILITY CRITERION OF THE ADVECTION TERM
 (FOR PURE FINITE-DIFFERENCE OPTION, MIXELM=0) 
 =  7.978    (WHEN MIN. R.F.=1)  AT K=  16, I=   1, J=  90


 TOTAL NUMBER OF POINT SOURCES/SINKS PRESENT IN THE FLOW MODEL =    30

 MAXIMUM STEPSIZE WHICH MEETS STABILITY CRITERION OF THE SINK & SOURCE TERM
 =  12.10    (WHEN MIN. R.F.=1)  AT K=  17, I=   1, J=  91

 MAXIMUM STEPSIZE WHICH MEETS STABILITY CRITERION OF THE DISPERSION TERM
 =  4.342    (WHEN MIN. R.F.=1)  AT K=  17, I=   1, J=  90
     1 CALLS TO GCG PACKAGE FOR TRANSPORT TIME STEP 472 IN FLOW TIME STEP   1 STRESS PERIOD   1
    10 TOTAL ITERATIONS
     1 CALLS TO GCG PACKAGE FOR TRANSPORT TIME STEP 472 IN FLOW TIME STEP   1 STRESS PERIOD   1
     8 TOTAL ITERATIONS
 
 SOLVING FOR HEAD 


     2 CALLS TO PCG ROUTINE FOR TIME STEP   1 IN STRESS PERIOD    1
     9 TOTAL ITERATIONS

 MAXIMUM HEAD CHANGE FOR EACH ITERATION (1 INDICATES THE FIRST INNER ITERATION):

    HEAD CHANGE    HEAD CHANGE    HEAD CHANGE    HEAD CHANGE    HEAD CHANGE 
   LAYER,ROW,COL  LAYER,ROW,COL  LAYER,ROW,COL  LAYER,ROW,COL  LAYER,ROW,COL
 ---------------------------------------------------------------------------
  1  0.1358E-01  0 -0.4059E-02  0 -0.3060E-02  0  0.1179E-01  0 -0.1248E-01
   ( 15,  1, 86)  ( 17,  1, 89)  (  8,  1, 12)  ( 11,  1, 57)  ( 11,  1, 57)
  0  0.2230E-02  0 -0.1018E-02  0 -0.6335E-03  1  0.4637E-03
   ( 11,  1, 55)  ( 11,  1, 51)  ( 11,  1, 58)  ( 11,  1, 64)

 MAXIMUM RESIDUAL FOR EACH ITERATION (1 INDICATES THE FIRST INNER ITERATION):

    RESIDUAL       RESIDUAL       RESIDUAL       RESIDUAL       RESIDUAL    
   LAYER,ROW,COL  LAYER,ROW,COL  LAYER,ROW,COL  LAYER,ROW,COL  LAYER,ROW,COL
 ---------------------------------------------------------------------------
  1  0.1327E+06  0 -0.9421E+05  0 -0.9324E+05  0 -0.2071E+05  0   4985.    
   ( 21,  1, 89)  ( 19,  1, 89)  ( 19,  1, 89)  ( 19,  1, 89)  ( 17,  1, 88)
  0   2762.      0   2270.      0   714.5      1   602.3    
   ( 22,  1, 87)  ( 22,  1, 87)  ( 22,  1, 87)  ( 22,  1, 87)


 FLOW MODEL IS TRANSIENT
 FLOW MODEL CONTAINS CONSTANT-HEAD CELLS


 MAXIMUM STEPSIZE DURING WHICH ANY PARTICLE CANNOT MOVE MORE THAN ONE CELL
 =  12.84    (WHEN MIN. R.F.=1)  AT K=  17, I=   1, J=  90

 MAXIMUM STEPSIZE WHICH MEETS STABILITY CRITERION OF THE ADVECTION TERM
 (FOR PURE FINITE-DIFFERENCE OPTION, MIXELM=0) 
 =  8.029    (WHEN MIN. R.F.=1)  AT K=  16, I=   1, J=  90


 TOTAL NUMBER OF POINT SOURCES/SINKS PRESENT IN THE FLOW MODEL =    30

 MAXIMUM STEPSIZE WHICH MEETS STABILITY CRITERION OF THE SINK & SOURCE TERM
 =  12.19    (WHEN MIN. R.F.=1)  AT K=  17, I=   1, J=  91

 MAXIMUM STEPSIZE WHICH MEETS STABILITY CRITERION OF THE DISPERSION TERM
 =  4.023    (WHEN MIN. R.F.=1)  AT K=  17, I=   1, J=  90
     1 CALLS TO GCG PACKAGE FOR TRANSPORT TIME STEP 473 IN FLOW TIME STEP   1 STRESS PERIOD   1
     8 TOTAL ITERATIONS
     1 CALLS TO GCG PACKAGE FOR TRANSPORT TIME STEP 473 IN FLOW TIME STEP   1 STRESS PERIOD   1
     8 TOTAL ITERATIONS
 
 SOLVING FOR HEAD 


     2 CALLS TO PCG ROUTINE FOR TIME STEP   1 IN STRESS PERIOD    1
     8 TOTAL ITERATIONS

 MAXIMUM HEAD CHANGE FOR EACH ITERATION (1 INDICATES THE FIRST INNER ITERATION):

    HEAD CHANGE    HEAD CHANGE    HEAD CHANGE    HEAD CHANGE    HEAD CHANGE 
   LAYER,ROW,COL  LAYER,ROW,COL  LAYER,ROW,COL  LAYER,ROW,COL  LAYER,ROW,COL
 ---------------------------------------------------------------------------
  1 -0.1337E-01  0  0.3640E-02  0  0.2351E-02  0  0.1346E-01  0 -0.1429E-01
   ( 15,  1, 86)  ( 17,  1, 89)  (  8,  1, 12)  ( 11,  1, 49)  ( 11,  1, 49)
  0  0.1729E-02  0  0.8668E-03  1  0.4712E-03
   ( 11,  1, 51)  ( 11,  1, 69)  ( 11,  1, 37)

 MAXIMUM RESIDUAL FOR EACH ITERATION (1 INDICATES THE FIRST INNER ITERATION):

    RESIDUAL       RESIDUAL       RESIDUAL       RESIDUAL       RESIDUAL    
   LAYER,ROW,COL  LAYER,ROW,COL  LAYER,ROW,COL  LAYER,ROW,COL  LAYER,ROW,COL
 ---------------------------------------------------------------------------
  1 -0.1298E+06  0  0.9071E+05  0  0.8927E+05  0  0.2470E+05  0   5455.    
   ( 21,  1, 89)  ( 19,  1, 89)  ( 19,  1, 89)  ( 19,  1, 89)  ( 17,  1, 87)
  0  -2839.      0  -2534.      1  -2073.    
   ( 22,  1, 87)  ( 22,  1, 87)  ( 22,  1, 87)


 FLOW MODEL IS TRANSIENT
 FLOW MODEL CONTAINS CONSTANT-HEAD CELLS


 MAXIMUM STEPSIZE DURING WHICH ANY PARTICLE CANNOT MOVE MORE THAN ONE CELL
 =  13.23    (WHEN MIN. R.F.=1)  AT K=  17, I=   1, J=  90

 MAXIMUM STEPSIZE WHICH MEETS STABILITY CRITERION OF THE ADVECTION TERM
 (FOR PURE FINITE-DIFFERENCE OPTION, MIXELM=0) 
 =  8.010    (WHEN MIN. R.F.=1)  AT K=  16, I=   1, J=  90


 TOTAL NUMBER OF POINT SOURCES/SINKS PRESENT IN THE FLOW MODEL =    30

 MAXIMUM STEPSIZE WHICH MEETS STABILITY CRITERION OF THE SINK & SOURCE TERM
 =  12.18    (WHEN MIN. R.F.=1)  AT K=  17, I=   1, J=  91

 MAXIMUM STEPSIZE WHICH MEETS STABILITY CRITERION OF THE DISPERSION TERM
 =  4.371    (WHEN MIN. R.F.=1)  AT K=  17, I=   1, J=  90
     1 CALLS TO GCG PACKAGE FOR TRANSPORT TIME STEP 474 IN FLOW TIME STEP   1 STRESS PERIOD   1
    10 TOTAL ITERATIONS
     1 CALLS TO GCG PACKAGE FOR TRANSPORT TIME STEP 474 IN FLOW TIME STEP   1 STRESS PERIOD   1
     8 TOTAL ITERATIONS
 
 SOLVING FOR HEAD 


     2 CALLS TO PCG ROUTINE FOR TIME STEP   1 IN STRESS PERIOD    1
     9 TOTAL ITERATIONS

 MAXIMUM HEAD CHANGE FOR EACH ITERATION (1 INDICATES THE FIRST INNER ITERATION):

    HEAD CHANGE    HEAD CHANGE    HEAD CHANGE    HEAD CHANGE    HEAD CHANGE 
   LAYER,ROW,COL  LAYER,ROW,COL  LAYER,ROW,COL  LAYER,ROW,COL  LAYER,ROW,COL
 ---------------------------------------------------------------------------
  1  0.1375E-01  0 -0.5830E-02  0 -0.4282E-02  0  0.9000E-02  0 -0.6390E-02
   ( 15,  1, 86)  ( 11,  1, 68)  (  8,  1, 12)  (  8,  1, 43)  (  9,  1, 48)
  0 -0.4405E-02  0  0.1514E-02  0 -0.7468E-03  1  0.6295E-03
   ( 11,  1, 49)  ( 11,  1, 49)  ( 11,  1, 53)  ( 11,  1, 54)

 MAXIMUM RESIDUAL FOR EACH ITERATION (1 INDICATES THE FIRST INNER ITERATION):

    RESIDUAL       RESIDUAL       RESIDUAL       RESIDUAL       RESIDUAL    
   LAYER,ROW,COL  LAYER,ROW,COL  LAYER,ROW,COL  LAYER,ROW,COL  LAYER,ROW,COL
 ---------------------------------------------------------------------------
  1  0.1338E+06  0 -0.9416E+05  0 -0.9343E+05  0 -0.7495E+05  0  -6052.    
   ( 21,  1, 89)  ( 19,  1, 89)  ( 19,  1, 89)  ( 19,  1, 89)  ( 17,  1, 87)
  0   2874.      0   2623.      0   961.8      1   851.6    
   ( 17,  1, 88)  ( 22,  1, 87)  ( 22,  1, 87)  ( 22,  1, 87)


 FLOW MODEL IS TRANSIENT
 FLOW MODEL CONTAINS CONSTANT-HEAD CELLS


 MAXIMUM STEPSIZE DURING WHICH ANY PARTICLE CANNOT MOVE MORE THAN ONE CELL
 =  12.93    (WHEN MIN. R.F.=1)  AT K=  17, I=   1, J=  90

 MAXIMUM STEPSIZE WHICH MEETS STABILITY CRITERION OF THE ADVECTION TERM
 (FOR PURE FINITE-DIFFERENCE OPTION, MIXELM=0) 
 =  8.064    (WHEN MIN. R.F.=1)  AT K=  16, I=   1, J=  90


 TOTAL NUMBER OF POINT SOURCES/SINKS PRESENT IN THE FLOW MODEL =    30

 MAXIMUM STEPSIZE WHICH MEETS STABILITY CRITERION OF THE SINK & SOURCE TERM
 =  12.30    (WHEN MIN. R.F.=1)  AT K=  17, I=   1, J=  91

 MAXIMUM STEPSIZE WHICH MEETS STABILITY CRITERION OF THE DISPERSION TERM
 =  4.058    (WHEN MIN. R.F.=1)  AT K=  17, I=   1, J=  90
     1 CALLS TO GCG PACKAGE FOR TRANSPORT TIME STEP 475 IN FLOW TIME STEP   1 STRESS PERIOD   1
     8 TOTAL ITERATIONS
  MAXIMUM CONCENTRATION CHANGES FOR EACH ITERATION:
  MAX. CHANGE LAYER,ROW,COL MAX. CHANGE LAYER,ROW,COL MAX. CHANGE LAYER,ROW,COL MAX. CHANGE LAYER,ROW,COL MAX. CHANGE LAYER,ROW,COL
 ------------------------------------------------------------------------------------------------------------------------------------
   0.5212E-01 ( 20,  1, 87)  0.4234E-02 ( 19,  1, 89)  0.2092E-02 ( 17,  1, 86)  0.5008E-03 ( 20,  1, 89)  0.9631E-04 ( 16,  1, 89)
   0.1987E-04 ( 20,  1, 89)  0.1997E-04 ( 16,  1, 90)  0.7022E-06 ( 17,  1, 90)
     1 CALLS TO GCG PACKAGE FOR TRANSPORT TIME STEP 475 IN FLOW TIME STEP   1 STRESS PERIOD   1
     8 TOTAL ITERATIONS
  MAXIMUM CONCENTRATION CHANGES FOR EACH ITERATION:
  MAX. CHANGE LAYER,ROW,COL MAX. CHANGE LAYER,ROW,COL MAX. CHANGE LAYER,ROW,COL MAX. CHANGE LAYER,ROW,COL MAX. CHANGE LAYER,ROW,COL
 ------------------------------------------------------------------------------------------------------------------------------------
   0.6013E-01 ( 20,  1, 87)  0.5023E-02 ( 19,  1, 89)  0.2036E-02 ( 18,  1, 86)  0.4347E-03 ( 23,  1, 87)  0.1141E-03 ( 16,  1, 89)
   0.2450E-04 ( 23,  1, 87)  0.1706E-04 ( 17,  1, 90)  0.8769E-06 ( 17,  1, 90)
 
 SOLVING FOR HEAD 


     2 CALLS TO PCG ROUTINE FOR TIME STEP   1 IN STRESS PERIOD    1
     8 TOTAL ITERATIONS

 MAXIMUM HEAD CHANGE FOR EACH ITERATION (1 INDICATES THE FIRST INNER ITERATION):

    HEAD CHANGE    HEAD CHANGE    HEAD CHANGE    HEAD CHANGE    HEAD CHANGE 
   LAYER,ROW,COL  LAYER,ROW,COL  LAYER,ROW,COL  LAYER,ROW,COL  LAYER,ROW,COL
 ---------------------------------------------------------------------------
  1 -0.1363E-01  0  0.3992E-02  0  0.3671E-02  0 -0.8802E-02  0 -0.1008E-01
   ( 15,  1, 86)  ( 17,  1, 89)  (  8,  1, 12)  ( 11,  1, 53)  ( 11,  1, 60)
  0  0.2392E-02  0  0.9546E-03  1  0.5158E-03
   ( 11,  1, 61)  ( 11,  1, 49)  ( 11,  1, 67)

 MAXIMUM RESIDUAL FOR EACH ITERATION (1 INDICATES THE FIRST INNER ITERATION):

    RESIDUAL       RESIDUAL       RESIDUAL       RESIDUAL       RESIDUAL    
   LAYER,ROW,COL  LAYER,ROW,COL  LAYER,ROW,COL  LAYER,ROW,COL  LAYER,ROW,COL
 ---------------------------------------------------------------------------
  1 -0.1362E+06  0  0.9708E+05  0  0.9621E+05  0  0.1734E+05  0  -4472.    
   ( 21,  1, 89)  ( 19,  1, 89)  ( 19,  1, 89)  ( 19,  1, 89)  ( 17,  1, 88)
  0  -2805.      0  -2492.      1  -2044.    
   ( 22,  1, 87)  ( 22,  1, 87)  ( 22,  1, 87)


 FLOW MODEL IS TRANSIENT
 FLOW MODEL CONTAINS CONSTANT-HEAD CELLS


 MAXIMUM STEPSIZE DURING WHICH ANY PARTICLE CANNOT MOVE MORE THAN ONE CELL
 =  13.25    (WHEN MIN. R.F.=1)  AT K=  17, I=   1, J=  90

 MAXIMUM STEPSIZE WHICH MEETS STABILITY CRITERION OF THE ADVECTION TERM
 (FOR PURE FINITE-DIFFERENCE OPTION, MIXELM=0) 
 =  8.014    (WHEN MIN. R.F.=1)  AT K=  16, I=   1, J=  90


 TOTAL NUMBER OF POINT SOURCES/SINKS PRESENT IN THE FLOW MODEL =    30

 MAXIMUM STEPSIZE WHICH MEETS STABILITY CRITERION OF THE SINK & SOURCE TERM
 =  12.21    (WHEN MIN. R.F.=1)  AT K=  17, I=   1, J=  91

 MAXIMUM STEPSIZE WHICH MEETS STABILITY CRITERION OF THE DISPERSION TERM
 =  4.378    (WHEN MIN. R.F.=1)  AT K=  17, I=   1, J=  90
     1 CALLS TO GCG PACKAGE FOR TRANSPORT TIME STEP 476 IN FLOW TIME STEP   1 STRESS PERIOD   1
    10 TOTAL ITERATIONS
     1 CALLS TO GCG PACKAGE FOR TRANSPORT TIME STEP 476 IN FLOW TIME STEP   1 STRESS PERIOD   1
     8 TOTAL ITERATIONS
 
 SOLVING FOR HEAD 


     2 CALLS TO PCG ROUTINE FOR TIME STEP   1 IN STRESS PERIOD    1
     9 TOTAL ITERATIONS

 MAXIMUM HEAD CHANGE FOR EACH ITERATION (1 INDICATES THE FIRST INNER ITERATION):

    HEAD CHANGE    HEAD CHANGE    HEAD CHANGE    HEAD CHANGE    HEAD CHANGE 
   LAYER,ROW,COL  LAYER,ROW,COL  LAYER,ROW,COL  LAYER,ROW,COL  LAYER,ROW,COL
 ---------------------------------------------------------------------------
  1  0.1368E-01  0  0.6514E-02  0 -0.3269E-02  0 -0.9012E-02  0  0.6588E-02
   ( 15,  1, 86)  (  7,  1, 50)  (  7,  1, 12)  (  9,  1, 51)  ( 10,  1, 52)
  0 -0.4422E-02  0  0.1478E-02  0 -0.8296E-03  1  0.6114E-03
   ( 11,  1, 60)  ( 11,  1, 60)  ( 11,  1, 63)  ( 11,  1, 54)

 MAXIMUM RESIDUAL FOR EACH ITERATION (1 INDICATES THE FIRST INNER ITERATION):

    RESIDUAL       RESIDUAL       RESIDUAL       RESIDUAL       RESIDUAL    
   LAYER,ROW,COL  LAYER,ROW,COL  LAYER,ROW,COL  LAYER,ROW,COL  LAYER,ROW,COL
 ---------------------------------------------------------------------------
  1  0.1368E+06  0 -0.9739E+05  0 -0.9637E+05  0 -0.7620E+05  0  -6254.    
   ( 21,  1, 89)  ( 19,  1, 89)  ( 19,  1, 89)  ( 19,  1, 89)  ( 17,  1, 87)
  0   2934.      0   2591.      0   1141.      1   1013.    
   ( 17,  1, 88)  ( 22,  1, 87)  ( 22,  1, 87)  ( 22,  1, 87)


 FLOW MODEL IS TRANSIENT
 FLOW MODEL CONTAINS CONSTANT-HEAD CELLS


 MAXIMUM STEPSIZE DURING WHICH ANY PARTICLE CANNOT MOVE MORE THAN ONE CELL
 =  12.89    (WHEN MIN. R.F.=1)  AT K=  17, I=   1, J=  90

 MAXIMUM STEPSIZE WHICH MEETS STABILITY CRITERION OF THE ADVECTION TERM
 (FOR PURE FINITE-DIFFERENCE OPTION, MIXELM=0) 
 =  8.055    (WHEN MIN. R.F.=1)  AT K=  16, I=   1, J=  90


 TOTAL NUMBER OF POINT SOURCES/SINKS PRESENT IN THE FLOW MODEL =    30

 MAXIMUM STEPSIZE WHICH MEETS STABILITY CRITERION OF THE SINK & SOURCE TERM
 =  12.27    (WHEN MIN. R.F.=1)  AT K=  17, I=   1, J=  91

 MAXIMUM STEPSIZE WHICH MEETS STABILITY CRITERION OF THE DISPERSION TERM
 =  4.040    (WHEN MIN. R.F.=1)  AT K=  17, I=   1, J=  90
     1 CALLS TO GCG PACKAGE FOR TRANSPORT TIME STEP 477 IN FLOW TIME STEP   1 STRESS PERIOD   1
     8 TOTAL ITERATIONS
     1 CALLS TO GCG PACKAGE FOR TRANSPORT TIME STEP 477 IN FLOW TIME STEP   1 STRESS PERIOD   1
     8 TOTAL ITERATIONS
 
 SOLVING FOR HEAD 


     2 CALLS TO PCG ROUTINE FOR TIME STEP   1 IN STRESS PERIOD    1
     8 TOTAL ITERATIONS

 MAXIMUM HEAD CHANGE FOR EACH ITERATION (1 INDICATES THE FIRST INNER ITERATION):

    HEAD CHANGE    HEAD CHANGE    HEAD CHANGE    HEAD CHANGE    HEAD CHANGE 
   LAYER,ROW,COL  LAYER,ROW,COL  LAYER,ROW,COL  LAYER,ROW,COL  LAYER,ROW,COL
 ---------------------------------------------------------------------------
  1 -0.1368E-01  0  0.4097E-02  0  0.4410E-02  0 -0.9686E-02  0  0.1032E-01
   ( 15,  1, 86)  ( 17,  1, 89)  (  8,  1, 12)  ( 11,  1, 57)  ( 11,  1, 57)
  0  0.2340E-02  0  0.9711E-03  1 -0.7476E-03
   ( 11,  1, 68)  ( 11,  1, 49)  ( 11,  1, 49)

 MAXIMUM RESIDUAL FOR EACH ITERATION (1 INDICATES THE FIRST INNER ITERATION):

    RESIDUAL       RESIDUAL       RESIDUAL       RESIDUAL       RESIDUAL    
   LAYER,ROW,COL  LAYER,ROW,COL  LAYER,ROW,COL  LAYER,ROW,COL  LAYER,ROW,COL
 ---------------------------------------------------------------------------
  1 -0.1360E+06  0  0.9644E+05  0  0.9574E+05  0  0.2006E+05  0  -4906.    
   ( 21,  1, 89)  ( 19,  1, 89)  ( 19,  1, 89)  ( 19,  1, 89)  ( 17,  1, 88)
  0  -2843.      0  -2293.      1  -1995.    
   ( 22,  1, 87)  ( 22,  1, 87)  ( 22,  1, 87)


 FLOW MODEL IS TRANSIENT
 FLOW MODEL CONTAINS CONSTANT-HEAD CELLS


 MAXIMUM STEPSIZE DURING WHICH ANY PARTICLE CANNOT MOVE MORE THAN ONE CELL
 =  13.25    (WHEN MIN. R.F.=1)  AT K=  17, I=   1, J=  90

 MAXIMUM STEPSIZE WHICH MEETS STABILITY CRITERION OF THE ADVECTION TERM
 (FOR PURE FINITE-DIFFERENCE OPTION, MIXELM=0) 
 =  8.015    (WHEN MIN. R.F.=1)  AT K=  16, I=   1, J=  90


 TOTAL NUMBER OF POINT SOURCES/SINKS PRESENT IN THE FLOW MODEL =    30

 MAXIMUM STEPSIZE WHICH MEETS STABILITY CRITERION OF THE SINK & SOURCE TERM
 =  12.20    (WHEN MIN. R.F.=1)  AT K=  17, I=   1, J=  91

 MAXIMUM STEPSIZE WHICH MEETS STABILITY CRITERION OF THE DISPERSION TERM
 =  4.385    (WHEN MIN. R.F.=1)  AT K=  17, I=   1, J=  90
     1 CALLS TO GCG PACKAGE FOR TRANSPORT TIME STEP 478 IN FLOW TIME STEP   1 STRESS PERIOD   1
    10 TOTAL ITERATIONS
     1 CALLS TO GCG PACKAGE FOR TRANSPORT TIME STEP 478 IN FLOW TIME STEP   1 STRESS PERIOD   1
     8 TOTAL ITERATIONS
 
 SOLVING FOR HEAD 


     2 CALLS TO PCG ROUTINE FOR TIME STEP   1 IN STRESS PERIOD    1
     8 TOTAL ITERATIONS

 MAXIMUM HEAD CHANGE FOR EACH ITERATION (1 INDICATES THE FIRST INNER ITERATION):

    HEAD CHANGE    HEAD CHANGE    HEAD CHANGE    HEAD CHANGE    HEAD CHANGE 
   LAYER,ROW,COL  LAYER,ROW,COL  LAYER,ROW,COL  LAYER,ROW,COL  LAYER,ROW,COL
 ---------------------------------------------------------------------------
  1  0.1367E-01  0 -0.5556E-02  0 -0.3269E-02  0  0.1518E-01  0 -0.1230E-01
   ( 15,  1, 86)  ( 11,  1, 49)  (  8,  1, 12)  ( 11,  1, 49)  ( 11,  1, 50)
  0 -0.3141E-02  0  0.9164E-03  1 -0.7495E-03
   ( 11,  1, 69)  (  8,  1, 43)  ( 11,  1, 53)

 MAXIMUM RESIDUAL FOR EACH ITERATION (1 INDICATES THE FIRST INNER ITERATION):

    RESIDUAL       RESIDUAL       RESIDUAL       RESIDUAL       RESIDUAL    
   LAYER,ROW,COL  LAYER,ROW,COL  LAYER,ROW,COL  LAYER,ROW,COL  LAYER,ROW,COL
 ---------------------------------------------------------------------------
  1  0.1370E+06  0 -0.9792E+05  0 -0.9693E+05  0 -0.5658E+05  0  -5846.    
   ( 21,  1, 89)  ( 19,  1, 89)  ( 19,  1, 89)  ( 19,  1, 89)  ( 17,  1, 87)
  0   2873.      0   2582.      1   1742.    
   ( 17,  1, 88)  ( 22,  1, 87)  ( 22,  1, 87)


 FLOW MODEL IS TRANSIENT
 FLOW MODEL CONTAINS CONSTANT-HEAD CELLS


 MAXIMUM STEPSIZE DURING WHICH ANY PARTICLE CANNOT MOVE MORE THAN ONE CELL
 =  12.89    (WHEN MIN. R.F.=1)  AT K=  17, I=   1, J=  90

 MAXIMUM STEPSIZE WHICH MEETS STABILITY CRITERION OF THE ADVECTION TERM
 (FOR PURE FINITE-DIFFERENCE OPTION, MIXELM=0) 
 =  8.054    (WHEN MIN. R.F.=1)  AT K=  16, I=   1, J=  90


 TOTAL NUMBER OF POINT SOURCES/SINKS PRESENT IN THE FLOW MODEL =    30

 MAXIMUM STEPSIZE WHICH MEETS STABILITY CRITERION OF THE SINK & SOURCE TERM
 =  12.26    (WHEN MIN. R.F.=1)  AT K=  17, I=   1, J=  91

 MAXIMUM STEPSIZE WHICH MEETS STABILITY CRITERION OF THE DISPERSION TERM
 =  4.037    (WHEN MIN. R.F.=1)  AT K=  17, I=   1, J=  90
     1 CALLS TO GCG PACKAGE FOR TRANSPORT TIME STEP 479 IN FLOW TIME STEP   1 STRESS PERIOD   1
     8 TOTAL ITERATIONS
     1 CALLS TO GCG PACKAGE FOR TRANSPORT TIME STEP 479 IN FLOW TIME STEP   1 STRESS PERIOD   1
     8 TOTAL ITERATIONS
 
 SOLVING FOR HEAD 


     2 CALLS TO PCG ROUTINE FOR TIME STEP   1 IN STRESS PERIOD    1
     9 TOTAL ITERATIONS

 MAXIMUM HEAD CHANGE FOR EACH ITERATION (1 INDICATES THE FIRST INNER ITERATION):

    HEAD CHANGE    HEAD CHANGE    HEAD CHANGE    HEAD CHANGE    HEAD CHANGE 
   LAYER,ROW,COL  LAYER,ROW,COL  LAYER,ROW,COL  LAYER,ROW,COL  LAYER,ROW,COL
 ---------------------------------------------------------------------------
  1 -0.1382E-01  0 -0.1073E-01  0  0.7619E-02  0  0.9568E-02  0 -0.6767E-02
   ( 15,  1, 86)  (  5,  1, 38)  (  8,  1, 12)  (  9,  1, 42)  (  7,  1, 44)
  0 -0.5206E-02  0  0.1689E-02  0  0.9922E-03  1 -0.7483E-03
   ( 11,  1, 52)  ( 11,  1, 51)  ( 11,  1, 65)  ( 11,  1, 65)

 MAXIMUM RESIDUAL FOR EACH ITERATION (1 INDICATES THE FIRST INNER ITERATION):

    RESIDUAL       RESIDUAL       RESIDUAL       RESIDUAL       RESIDUAL    
   LAYER,ROW,COL  LAYER,ROW,COL  LAYER,ROW,COL  LAYER,ROW,COL  LAYER,ROW,COL
 ---------------------------------------------------------------------------
  1 -0.1382E+06  0  0.9718E+05  0  0.9723E+05  0  0.8079E+05  0  -6719.    
   ( 21,  1, 89)  ( 19,  1, 89)  ( 19,  1, 89)  ( 19,  1, 89)  ( 17,  1, 88)
  0  -3395.      0  -2593.      0  -1941.      1  -1675.    
   ( 17,  1, 88)  ( 22,  1, 87)  ( 22,  1, 87)  ( 22,  1, 87)


 FLOW MODEL IS TRANSIENT
 FLOW MODEL CONTAINS CONSTANT-HEAD CELLS


 MAXIMUM STEPSIZE DURING WHICH ANY PARTICLE CANNOT MOVE MORE THAN ONE CELL
 =  13.22    (WHEN MIN. R.F.=1)  AT K=  17, I=   1, J=  90

 MAXIMUM STEPSIZE WHICH MEETS STABILITY CRITERION OF THE ADVECTION TERM
 (FOR PURE FINITE-DIFFERENCE OPTION, MIXELM=0) 
 =  8.001    (WHEN MIN. R.F.=1)  AT K=  16, I=   1, J=  90


 TOTAL NUMBER OF POINT SOURCES/SINKS PRESENT IN THE FLOW MODEL =    30

 MAXIMUM STEPSIZE WHICH MEETS STABILITY CRITERION OF THE SINK & SOURCE TERM
 =  12.16    (WHEN MIN. R.F.=1)  AT K=  17, I=   1, J=  91

 MAXIMUM STEPSIZE WHICH MEETS STABILITY CRITERION OF THE DISPERSION TERM
 =  4.376    (WHEN MIN. R.F.=1)  AT K=  17, I=   1, J=  90
     1 CALLS TO GCG PACKAGE FOR TRANSPORT TIME STEP 480 IN FLOW TIME STEP   1 STRESS PERIOD   1
     7 TOTAL ITERATIONS
  MAXIMUM CONCENTRATION CHANGES FOR EACH ITERATION:
  MAX. CHANGE LAYER,ROW,COL MAX. CHANGE LAYER,ROW,COL MAX. CHANGE LAYER,ROW,COL MAX. CHANGE LAYER,ROW,COL MAX. CHANGE LAYER,ROW,COL
 ------------------------------------------------------------------------------------------------------------------------------------
   0.4866E-01 ( 19,  1, 88)  0.3284E-02 ( 19,  1, 87)  0.2174E-02 ( 18,  1, 87)  0.2145E-03 ( 16,  1, 88)  0.1430E-03 ( 17,  1, 89)
   0.2853E-04 ( 16,  1, 90)  0.9965E-06 ( 21,  1, 78)
     1 CALLS TO GCG PACKAGE FOR TRANSPORT TIME STEP 480 IN FLOW TIME STEP   1 STRESS PERIOD   1
     8 TOTAL ITERATIONS
  MAXIMUM CONCENTRATION CHANGES FOR EACH ITERATION:
  MAX. CHANGE LAYER,ROW,COL MAX. CHANGE LAYER,ROW,COL MAX. CHANGE LAYER,ROW,COL MAX. CHANGE LAYER,ROW,COL MAX. CHANGE LAYER,ROW,COL
 ------------------------------------------------------------------------------------------------------------------------------------
   0.5599E-01 ( 19,  1, 88)  0.4101E-02 ( 19,  1, 87)  0.2311E-02 ( 18,  1, 87)  0.2794E-03 ( 23,  1, 88)  0.1376E-03 ( 17,  1, 89)
   0.3744E-04 ( 16,  1, 90)  0.5519E-05 ( 17,  1, 90)  0.5971E-06 ( 16,  1, 89)



 >>>>>>>>>>>>>>>>>>>>>>>>>>>>>>>>>>>>>>>>>>>>>>>>>>>>>>>FOR COMPONENT NO. 01<<<<<<<<<<<<<<<<<<<<<<<<<<<<<<<<<<<<<<<<<<<<<<<<<<<<<<<


                                            -------------------------------------------
                                                      TRANSPORT STEP NO.  480
                                            -------------------------------------------

 TOTAL ELAPSED TIME SINCE BEGINNING OF SIMULATION =   24000.00    D   
 .....................................................................

                     CUMMULATIVE MASS BUDGETS AT END OF TRANSPORT STEP  480, TIME STEP    1, STRESS PERIOD    1
                     ------------------------------------------------------------------------------------------

                                                             IN                           OUT
                                                      ----------------             ----------------
                               CONSTANT CONCENTRATION:    0.000000                    0.000000    
                                        CONSTANT HEAD:   0.9497957E+09              -0.9495931E+09
                                                WELLS:    0.000000                    0.000000    
                                             RECHARGE:    0.000000                    0.000000    
                               1ST/0TH ORDER REACTION:    0.000000                    0.000000    
                                MASS STORAGE (SOLUTE):   0.1327990E+09              -0.1330018E+09
                            ---------------------------------------------------------------------------
                                              [TOTAL]:   0.1082596E+10 KG           -0.1082596E+10 KG  

                                                          NET (IN - OUT):   -155.7136    
                                                   DISCREPANCY (PERCENT):  -0.1438336E-04



 >>>>>>>>>>>>>>>>>>>>>>>>>>>>>>>>>>>>>>>>>>>>>>>>>>>>>>>FOR COMPONENT NO. 02<<<<<<<<<<<<<<<<<<<<<<<<<<<<<<<<<<<<<<<<<<<<<<<<<<<<<<<


                                            -------------------------------------------
                                                      TRANSPORT STEP NO.  480
                                            -------------------------------------------

 TOTAL ELAPSED TIME SINCE BEGINNING OF SIMULATION =   24000.00    D   
 .....................................................................

                     CUMMULATIVE MASS BUDGETS AT END OF TRANSPORT STEP  480, TIME STEP    1, STRESS PERIOD    1
                     ------------------------------------------------------------------------------------------

                                                             IN                           OUT
                                                      ----------------             ----------------
                               CONSTANT CONCENTRATION:    0.000000                    0.000000    
                                        CONSTANT HEAD:    0.000000                  -0.1397883E+12
                                                WELLS:    0.000000                    0.000000    
                                             RECHARGE:    0.000000                    0.000000    
                               1ST/0TH ORDER REACTION:   0.3972000E+12                0.000000    
                                MASS STORAGE (SOLUTE):   0.4342671E+11              -0.3008385E+12
                            ---------------------------------------------------------------------------
                                              [TOTAL]:   0.4406274E+12 KG           -0.4406274E+12 KG  

                                                          NET (IN - OUT):   -47984.80    
                                                   DISCREPANCY (PERCENT):  -0.1089011E-04
 
 SOLVING FOR HEAD 


     2 CALLS TO PCG ROUTINE FOR TIME STEP   1 IN STRESS PERIOD    1
     9 TOTAL ITERATIONS

 MAXIMUM HEAD CHANGE FOR EACH ITERATION (1 INDICATES THE FIRST INNER ITERATION):

    HEAD CHANGE    HEAD CHANGE    HEAD CHANGE    HEAD CHANGE    HEAD CHANGE 
   LAYER,ROW,COL  LAYER,ROW,COL  LAYER,ROW,COL  LAYER,ROW,COL  LAYER,ROW,COL
 ---------------------------------------------------------------------------
  1  0.1365E-01  0 -0.4266E-02  0 -0.2969E-02  0  0.1294E-01  0  0.1149E-01
   ( 15,  1, 86)  ( 17,  1, 89)  (  8,  1, 12)  ( 11,  1, 65)  ( 11,  1, 57)
  0 -0.2799E-02  0 -0.1125E-02  0 -0.5486E-03  1 -0.5185E-03
   ( 11,  1, 53)  ( 11,  1, 59)  ( 11,  1, 70)  ( 11,  1, 54)

 MAXIMUM RESIDUAL FOR EACH ITERATION (1 INDICATES THE FIRST INNER ITERATION):

    RESIDUAL       RESIDUAL       RESIDUAL       RESIDUAL       RESIDUAL    
   LAYER,ROW,COL  LAYER,ROW,COL  LAYER,ROW,COL  LAYER,ROW,COL  LAYER,ROW,COL
 ---------------------------------------------------------------------------
  1  0.1373E+06  0 -0.9841E+05  0 -0.9732E+05  0 -0.3499E+05  0   5702.    
   ( 21,  1, 89)  ( 19,  1, 89)  ( 19,  1, 89)  ( 19,  1, 89)  ( 17,  1, 88)
  0   2744.      0   2499.      0   1359.      1   1212.    
   ( 17,  1, 88)  ( 22,  1, 87)  ( 22,  1, 87)  ( 22,  1, 87)


 FLOW MODEL IS TRANSIENT
 FLOW MODEL CONTAINS CONSTANT-HEAD CELLS


 MAXIMUM STEPSIZE DURING WHICH ANY PARTICLE CANNOT MOVE MORE THAN ONE CELL
 =  12.86    (WHEN MIN. R.F.=1)  AT K=  17, I=   1, J=  90

 MAXIMUM STEPSIZE WHICH MEETS STABILITY CRITERION OF THE ADVECTION TERM
 (FOR PURE FINITE-DIFFERENCE OPTION, MIXELM=0) 
 =  8.045    (WHEN MIN. R.F.=1)  AT K=  16, I=   1, J=  90


 TOTAL NUMBER OF POINT SOURCES/SINKS PRESENT IN THE FLOW MODEL =    30

 MAXIMUM STEPSIZE WHICH MEETS STABILITY CRITERION OF THE SINK & SOURCE TERM
 =  12.22    (WHEN MIN. R.F.=1)  AT K=  17, I=   1, J=  91

 MAXIMUM STEPSIZE WHICH MEETS STABILITY CRITERION OF THE DISPERSION TERM
 =  4.026    (WHEN MIN. R.F.=1)  AT K=  17, I=   1, J=  90
     1 CALLS TO GCG PACKAGE FOR TRANSPORT TIME STEP 481 IN FLOW TIME STEP   1 STRESS PERIOD   1
     8 TOTAL ITERATIONS
     1 CALLS TO GCG PACKAGE FOR TRANSPORT TIME STEP 481 IN FLOW TIME STEP   1 STRESS PERIOD   1
     8 TOTAL ITERATIONS
 
 SOLVING FOR HEAD 


     2 CALLS TO PCG ROUTINE FOR TIME STEP   1 IN STRESS PERIOD    1
     9 TOTAL ITERATIONS

 MAXIMUM HEAD CHANGE FOR EACH ITERATION (1 INDICATES THE FIRST INNER ITERATION):

    HEAD CHANGE    HEAD CHANGE    HEAD CHANGE    HEAD CHANGE    HEAD CHANGE 
   LAYER,ROW,COL  LAYER,ROW,COL  LAYER,ROW,COL  LAYER,ROW,COL  LAYER,ROW,COL
 ---------------------------------------------------------------------------
  1 -0.1365E-01  0 -0.4434E-02  0  0.5040E-02  0  0.9314E-02  0 -0.9160E-02
   ( 15,  1, 86)  (  6,  1, 12)  (  8,  1, 12)  (  9,  1, 46)  (  8,  1, 46)
  0  0.2232E-02  0  0.1038E-02  0  0.5800E-03  1 -0.7079E-03
   ( 11,  1, 68)  ( 11,  1, 54)  ( 11,  1, 71)  ( 11,  1, 70)

 MAXIMUM RESIDUAL FOR EACH ITERATION (1 INDICATES THE FIRST INNER ITERATION):

    RESIDUAL       RESIDUAL       RESIDUAL       RESIDUAL       RESIDUAL    
   LAYER,ROW,COL  LAYER,ROW,COL  LAYER,ROW,COL  LAYER,ROW,COL  LAYER,ROW,COL
 ---------------------------------------------------------------------------
  1 -0.1349E+06  0  0.9514E+05  0  0.9459E+05  0  0.3560E+05  0   5901.    
   ( 21,  1, 89)  ( 19,  1, 89)  ( 19,  1, 89)  ( 19,  1, 89)  ( 17,  1, 87)
  0  -2830.      0  -2504.      0  -756.2      1  -633.2    
   ( 22,  1, 87)  ( 22,  1, 87)  ( 22,  1, 87)  ( 22,  1, 87)


 FLOW MODEL IS TRANSIENT
 FLOW MODEL CONTAINS CONSTANT-HEAD CELLS


 MAXIMUM STEPSIZE DURING WHICH ANY PARTICLE CANNOT MOVE MORE THAN ONE CELL
 =  13.23    (WHEN MIN. R.F.=1)  AT K=  17, I=   1, J=  90

 MAXIMUM STEPSIZE WHICH MEETS STABILITY CRITERION OF THE ADVECTION TERM
 (FOR PURE FINITE-DIFFERENCE OPTION, MIXELM=0) 
 =  8.006    (WHEN MIN. R.F.=1)  AT K=  16, I=   1, J=  90


 TOTAL NUMBER OF POINT SOURCES/SINKS PRESENT IN THE FLOW MODEL =    30

 MAXIMUM STEPSIZE WHICH MEETS STABILITY CRITERION OF THE SINK & SOURCE TERM
 =  12.17    (WHEN MIN. R.F.=1)  AT K=  17, I=   1, J=  91

 MAXIMUM STEPSIZE WHICH MEETS STABILITY CRITERION OF THE DISPERSION TERM
 =  4.383    (WHEN MIN. R.F.=1)  AT K=  17, I=   1, J=  90
     1 CALLS TO GCG PACKAGE FOR TRANSPORT TIME STEP 482 IN FLOW TIME STEP   1 STRESS PERIOD   1
     9 TOTAL ITERATIONS
     1 CALLS TO GCG PACKAGE FOR TRANSPORT TIME STEP 482 IN FLOW TIME STEP   1 STRESS PERIOD   1
     8 TOTAL ITERATIONS
 
 SOLVING FOR HEAD 


     2 CALLS TO PCG ROUTINE FOR TIME STEP   1 IN STRESS PERIOD    1
     9 TOTAL ITERATIONS

 MAXIMUM HEAD CHANGE FOR EACH ITERATION (1 INDICATES THE FIRST INNER ITERATION):

    HEAD CHANGE    HEAD CHANGE    HEAD CHANGE    HEAD CHANGE    HEAD CHANGE 
   LAYER,ROW,COL  LAYER,ROW,COL  LAYER,ROW,COL  LAYER,ROW,COL  LAYER,ROW,COL
 ---------------------------------------------------------------------------
  1  0.1337E-01  0 -0.3882E-02  0 -0.4469E-02  0 -0.7551E-02  0  0.1139E-01
   ( 15,  1, 86)  ( 17,  1, 89)  (  8,  1, 12)  ( 11,  1, 49)  ( 11,  1, 49)
  0  0.2625E-02  0 -0.1605E-02  0 -0.6520E-03  1  0.7664E-03
   ( 11,  1, 67)  ( 11,  1, 66)  ( 11,  1, 38)  ( 11,  1, 67)

 MAXIMUM RESIDUAL FOR EACH ITERATION (1 INDICATES THE FIRST INNER ITERATION):

    RESIDUAL       RESIDUAL       RESIDUAL       RESIDUAL       RESIDUAL    
   LAYER,ROW,COL  LAYER,ROW,COL  LAYER,ROW,COL  LAYER,ROW,COL  LAYER,ROW,COL
 ---------------------------------------------------------------------------
  1  0.1348E+06  0 -0.9500E+05  0 -0.8104E+05  0 -0.1852E+05  0  -4896.    
   ( 21,  1, 89)  ( 19,  1, 89)  ( 19,  1, 89)  ( 19,  1, 89)  ( 17,  1, 87)
  0   2829.      0   2451.      0   1037.      1   908.9    
   ( 22,  1, 87)  ( 22,  1, 87)  ( 22,  1, 87)  ( 22,  1, 87)


 FLOW MODEL IS TRANSIENT
 FLOW MODEL CONTAINS CONSTANT-HEAD CELLS


 MAXIMUM STEPSIZE DURING WHICH ANY PARTICLE CANNOT MOVE MORE THAN ONE CELL
 =  12.84    (WHEN MIN. R.F.=1)  AT K=  17, I=   1, J=  90

 MAXIMUM STEPSIZE WHICH MEETS STABILITY CRITERION OF THE ADVECTION TERM
 (FOR PURE FINITE-DIFFERENCE OPTION, MIXELM=0) 
 =  8.034    (WHEN MIN. R.F.=1)  AT K=  16, I=   1, J=  90


 TOTAL NUMBER OF POINT SOURCES/SINKS PRESENT IN THE FLOW MODEL =    30

 MAXIMUM STEPSIZE WHICH MEETS STABILITY CRITERION OF THE SINK & SOURCE TERM
 =  12.19    (WHEN MIN. R.F.=1)  AT K=  17, I=   1, J=  91

 MAXIMUM STEPSIZE WHICH MEETS STABILITY CRITERION OF THE DISPERSION TERM
 =  4.024    (WHEN MIN. R.F.=1)  AT K=  17, I=   1, J=  90
     1 CALLS TO GCG PACKAGE FOR TRANSPORT TIME STEP 483 IN FLOW TIME STEP   1 STRESS PERIOD   1
     8 TOTAL ITERATIONS
     1 CALLS TO GCG PACKAGE FOR TRANSPORT TIME STEP 483 IN FLOW TIME STEP   1 STRESS PERIOD   1
     8 TOTAL ITERATIONS
 
 SOLVING FOR HEAD 


     2 CALLS TO PCG ROUTINE FOR TIME STEP   1 IN STRESS PERIOD    1
     9 TOTAL ITERATIONS

 MAXIMUM HEAD CHANGE FOR EACH ITERATION (1 INDICATES THE FIRST INNER ITERATION):

    HEAD CHANGE    HEAD CHANGE    HEAD CHANGE    HEAD CHANGE    HEAD CHANGE 
   LAYER,ROW,COL  LAYER,ROW,COL  LAYER,ROW,COL  LAYER,ROW,COL  LAYER,ROW,COL
 ---------------------------------------------------------------------------
  1 -0.1347E-01  0  0.3801E-02  0  0.3433E-02  0  0.9639E-02  0 -0.9336E-02
   ( 15,  1, 86)  ( 17,  1, 89)  (  8,  1, 12)  (  8,  1, 45)  (  7,  1, 45)
  0 -0.1493E-02  0  0.1195E-02  0  0.8669E-03  1 -0.9332E-03
   ( 11,  1, 51)  ( 11,  1, 51)  ( 11,  1, 69)  ( 11,  1, 70)

 MAXIMUM RESIDUAL FOR EACH ITERATION (1 INDICATES THE FIRST INNER ITERATION):

    RESIDUAL       RESIDUAL       RESIDUAL       RESIDUAL       RESIDUAL    
   LAYER,ROW,COL  LAYER,ROW,COL  LAYER,ROW,COL  LAYER,ROW,COL  LAYER,ROW,COL
 ---------------------------------------------------------------------------
  1 -0.1343E+06  0  0.9475E+05  0  0.9387E+05  0  0.3855E+05  0   6065.    
   ( 21,  1, 89)  ( 19,  1, 89)  ( 19,  1, 89)  ( 19,  1, 89)  ( 17,  1, 87)
  0  -2807.      0  -2476.      0  -842.4      1  -693.9    
   ( 22,  1, 87)  ( 22,  1, 87)  ( 22,  1, 87)  ( 22,  1, 87)


 FLOW MODEL IS TRANSIENT
 FLOW MODEL CONTAINS CONSTANT-HEAD CELLS


 MAXIMUM STEPSIZE DURING WHICH ANY PARTICLE CANNOT MOVE MORE THAN ONE CELL
 =  13.21    (WHEN MIN. R.F.=1)  AT K=  17, I=   1, J=  90

 MAXIMUM STEPSIZE WHICH MEETS STABILITY CRITERION OF THE ADVECTION TERM
 (FOR PURE FINITE-DIFFERENCE OPTION, MIXELM=0) 
 =  8.000    (WHEN MIN. R.F.=1)  AT K=  16, I=   1, J=  90


 TOTAL NUMBER OF POINT SOURCES/SINKS PRESENT IN THE FLOW MODEL =    30

 MAXIMUM STEPSIZE WHICH MEETS STABILITY CRITERION OF THE SINK & SOURCE TERM
 =  12.16    (WHEN MIN. R.F.=1)  AT K=  17, I=   1, J=  91

 MAXIMUM STEPSIZE WHICH MEETS STABILITY CRITERION OF THE DISPERSION TERM
 =  4.365    (WHEN MIN. R.F.=1)  AT K=  17, I=   1, J=  90
     1 CALLS TO GCG PACKAGE FOR TRANSPORT TIME STEP 484 IN FLOW TIME STEP   1 STRESS PERIOD   1
     7 TOTAL ITERATIONS
     1 CALLS TO GCG PACKAGE FOR TRANSPORT TIME STEP 484 IN FLOW TIME STEP   1 STRESS PERIOD   1
     8 TOTAL ITERATIONS
 
 SOLVING FOR HEAD 


     2 CALLS TO PCG ROUTINE FOR TIME STEP   1 IN STRESS PERIOD    1
     9 TOTAL ITERATIONS

 MAXIMUM HEAD CHANGE FOR EACH ITERATION (1 INDICATES THE FIRST INNER ITERATION):

    HEAD CHANGE    HEAD CHANGE    HEAD CHANGE    HEAD CHANGE    HEAD CHANGE 
   LAYER,ROW,COL  LAYER,ROW,COL  LAYER,ROW,COL  LAYER,ROW,COL  LAYER,ROW,COL
 ---------------------------------------------------------------------------
  1  0.1353E-01  0 -0.3774E-02  0 -0.2440E-02  0 -0.1103E-01  0  0.1200E-01
   ( 15,  1, 86)  ( 17,  1, 89)  (  8,  1, 12)  ( 11,  1, 56)  ( 11,  1, 56)
  0  0.2219E-02  0 -0.1481E-02  0 -0.4860E-03  1  0.5416E-03
   ( 11,  1, 65)  ( 11,  1, 65)  ( 11,  1, 49)  ( 11,  1, 65)

 MAXIMUM RESIDUAL FOR EACH ITERATION (1 INDICATES THE FIRST INNER ITERATION):

    RESIDUAL       RESIDUAL       RESIDUAL       RESIDUAL       RESIDUAL    
   LAYER,ROW,COL  LAYER,ROW,COL  LAYER,ROW,COL  LAYER,ROW,COL  LAYER,ROW,COL
 ---------------------------------------------------------------------------
  1  0.1321E+06  0 -0.9236E+05  0 -0.8980E+05  0 -0.2096E+05  0  -5120.    
   ( 21,  1, 89)  ( 19,  1, 89)  ( 19,  1, 89)  ( 19,  1, 89)  ( 17,  1, 87)
  0   2875.      0   2480.      0   1024.      1   910.7    
   ( 22,  1, 87)  ( 22,  1, 87)  ( 22,  1, 87)  ( 22,  1, 87)


 FLOW MODEL IS TRANSIENT
 FLOW MODEL CONTAINS CONSTANT-HEAD CELLS


 MAXIMUM STEPSIZE DURING WHICH ANY PARTICLE CANNOT MOVE MORE THAN ONE CELL
 =  12.85    (WHEN MIN. R.F.=1)  AT K=  17, I=   1, J=  90

 MAXIMUM STEPSIZE WHICH MEETS STABILITY CRITERION OF THE ADVECTION TERM
 (FOR PURE FINITE-DIFFERENCE OPTION, MIXELM=0) 
 =  8.033    (WHEN MIN. R.F.=1)  AT K=  16, I=   1, J=  90


 TOTAL NUMBER OF POINT SOURCES/SINKS PRESENT IN THE FLOW MODEL =    30

 MAXIMUM STEPSIZE WHICH MEETS STABILITY CRITERION OF THE SINK & SOURCE TERM
 =  12.20    (WHEN MIN. R.F.=1)  AT K=  17, I=   1, J=  91

 MAXIMUM STEPSIZE WHICH MEETS STABILITY CRITERION OF THE DISPERSION TERM
 =  4.030    (WHEN MIN. R.F.=1)  AT K=  17, I=   1, J=  90
     1 CALLS TO GCG PACKAGE FOR TRANSPORT TIME STEP 485 IN FLOW TIME STEP   1 STRESS PERIOD   1
     8 TOTAL ITERATIONS
  MAXIMUM CONCENTRATION CHANGES FOR EACH ITERATION:
  MAX. CHANGE LAYER,ROW,COL MAX. CHANGE LAYER,ROW,COL MAX. CHANGE LAYER,ROW,COL MAX. CHANGE LAYER,ROW,COL MAX. CHANGE LAYER,ROW,COL
 ------------------------------------------------------------------------------------------------------------------------------------
   0.5250E-01 ( 20,  1, 87)  0.4212E-02 ( 19,  1, 89)  0.2129E-02 ( 17,  1, 86)  0.4793E-03 ( 20,  1, 89)  0.9466E-04 ( 16,  1, 89)
   0.1980E-04 ( 20,  1, 89)  0.1841E-04 ( 16,  1, 90)  0.7395E-06 ( 17,  1, 90)
     1 CALLS TO GCG PACKAGE FOR TRANSPORT TIME STEP 485 IN FLOW TIME STEP   1 STRESS PERIOD   1
     8 TOTAL ITERATIONS
  MAXIMUM CONCENTRATION CHANGES FOR EACH ITERATION:
  MAX. CHANGE LAYER,ROW,COL MAX. CHANGE LAYER,ROW,COL MAX. CHANGE LAYER,ROW,COL MAX. CHANGE LAYER,ROW,COL MAX. CHANGE LAYER,ROW,COL
 ------------------------------------------------------------------------------------------------------------------------------------
   0.6028E-01 ( 20,  1, 87)  0.4926E-02 ( 19,  1, 89)  0.2077E-02 ( 18,  1, 86)  0.4166E-03 ( 23,  1, 87)  0.1129E-03 ( 16,  1, 89)
   0.2254E-04 ( 23,  1, 87)  0.1569E-04 ( 17,  1, 90)  0.8671E-06 ( 17,  1, 90)
 
 SOLVING FOR HEAD 


     2 CALLS TO PCG ROUTINE FOR TIME STEP   1 IN STRESS PERIOD    1
    11 TOTAL ITERATIONS

 MAXIMUM HEAD CHANGE FOR EACH ITERATION (1 INDICATES THE FIRST INNER ITERATION):

    HEAD CHANGE    HEAD CHANGE    HEAD CHANGE    HEAD CHANGE    HEAD CHANGE 
   LAYER,ROW,COL  LAYER,ROW,COL  LAYER,ROW,COL  LAYER,ROW,COL  LAYER,ROW,COL
 ---------------------------------------------------------------------------
  1 -0.1344E-01  0  0.3731E-02  0  0.2495E-02  0  0.8786E-02  0 -0.8875E-02
   ( 15,  1, 86)  ( 17,  1, 89)  (  7,  1, 12)  (  8,  1, 47)  (  8,  1, 47)
  0  0.1011E-02  0  0.1129E-02  0  0.1017E-02  0 -0.1185E-02  0  0.1994E-03
   ( 11,  1, 67)  ( 11,  1, 57)  ( 11,  1, 70)  ( 11,  1, 70)  ( 11,  1, 70)
  1 -0.1109E-03
   ( 11,  1, 58)

 MAXIMUM RESIDUAL FOR EACH ITERATION (1 INDICATES THE FIRST INNER ITERATION):

    RESIDUAL       RESIDUAL       RESIDUAL       RESIDUAL       RESIDUAL    
   LAYER,ROW,COL  LAYER,ROW,COL  LAYER,ROW,COL  LAYER,ROW,COL  LAYER,ROW,COL
 ---------------------------------------------------------------------------
  1 -0.1336E+06  0  0.9454E+05  0  0.9326E+05  0  0.3434E+05  0   5967.    
   ( 21,  1, 89)  ( 19,  1, 89)  ( 19,  1, 89)  ( 19,  1, 89)  ( 17,  1, 87)
  0  -2826.      0  -2361.      0  -854.7      0   315.0      0   256.8    
   ( 22,  1, 87)  ( 22,  1, 87)  ( 22,  1, 87)  ( 18,  1, 90)  ( 18,  1, 90)
  1   216.9    
   ( 18,  1, 90)


 FLOW MODEL IS TRANSIENT
 FLOW MODEL CONTAINS CONSTANT-HEAD CELLS


 MAXIMUM STEPSIZE DURING WHICH ANY PARTICLE CANNOT MOVE MORE THAN ONE CELL
 =  13.20    (WHEN MIN. R.F.=1)  AT K=  17, I=   1, J=  90

 MAXIMUM STEPSIZE WHICH MEETS STABILITY CRITERION OF THE ADVECTION TERM
 (FOR PURE FINITE-DIFFERENCE OPTION, MIXELM=0) 
 =  7.996    (WHEN MIN. R.F.=1)  AT K=  16, I=   1, J=  90


 TOTAL NUMBER OF POINT SOURCES/SINKS PRESENT IN THE FLOW MODEL =    30

 MAXIMUM STEPSIZE WHICH MEETS STABILITY CRITERION OF THE SINK & SOURCE TERM
 =  12.15    (WHEN MIN. R.F.=1)  AT K=  17, I=   1, J=  91

 MAXIMUM STEPSIZE WHICH MEETS STABILITY CRITERION OF THE DISPERSION TERM
 =  4.355    (WHEN MIN. R.F.=1)  AT K=  17, I=   1, J=  90
     1 CALLS TO GCG PACKAGE FOR TRANSPORT TIME STEP 486 IN FLOW TIME STEP   1 STRESS PERIOD   1
     7 TOTAL ITERATIONS
     1 CALLS TO GCG PACKAGE FOR TRANSPORT TIME STEP 486 IN FLOW TIME STEP   1 STRESS PERIOD   1
     8 TOTAL ITERATIONS
 
 SOLVING FOR HEAD 


     2 CALLS TO PCG ROUTINE FOR TIME STEP   1 IN STRESS PERIOD    1
     9 TOTAL ITERATIONS

 MAXIMUM HEAD CHANGE FOR EACH ITERATION (1 INDICATES THE FIRST INNER ITERATION):

    HEAD CHANGE    HEAD CHANGE    HEAD CHANGE    HEAD CHANGE    HEAD CHANGE 
   LAYER,ROW,COL  LAYER,ROW,COL  LAYER,ROW,COL  LAYER,ROW,COL  LAYER,ROW,COL
 ---------------------------------------------------------------------------
  1  0.1345E-01  0 -0.3589E-02  0 -0.2783E-02  0 -0.4033E-02  0  0.6697E-02
   ( 15,  1, 86)  ( 17,  1, 89)  (  8,  1, 12)  ( 11,  1, 51)  ( 11,  1, 51)
  0 -0.2553E-02  0 -0.1284E-02  0  0.8513E-03  1  0.4898E-03
   ( 11,  1, 50)  ( 11,  1, 65)  ( 11,  1, 65)  ( 11,  1, 58)

 MAXIMUM RESIDUAL FOR EACH ITERATION (1 INDICATES THE FIRST INNER ITERATION):

    RESIDUAL       RESIDUAL       RESIDUAL       RESIDUAL       RESIDUAL    
   LAYER,ROW,COL  LAYER,ROW,COL  LAYER,ROW,COL  LAYER,ROW,COL  LAYER,ROW,COL
 ---------------------------------------------------------------------------
  1  0.1316E+06  0 -0.9145E+05  0 -0.8728E+05  0 -0.1280E+05  0   3591.    
   ( 21,  1, 89)  ( 19,  1, 89)  ( 19,  1, 89)  ( 17,  1, 87)  ( 18,  1, 89)
  0   2874.      0   1676.      0   616.6      1   537.6    
   ( 22,  1, 87)  ( 22,  1, 87)  ( 22,  1, 87)  ( 22,  1, 87)


 FLOW MODEL IS TRANSIENT
 FLOW MODEL CONTAINS CONSTANT-HEAD CELLS


 MAXIMUM STEPSIZE DURING WHICH ANY PARTICLE CANNOT MOVE MORE THAN ONE CELL
 =  12.85    (WHEN MIN. R.F.=1)  AT K=  17, I=   1, J=  90

 MAXIMUM STEPSIZE WHICH MEETS STABILITY CRITERION OF THE ADVECTION TERM
 (FOR PURE FINITE-DIFFERENCE OPTION, MIXELM=0) 
 =  8.028    (WHEN MIN. R.F.=1)  AT K=  16, I=   1, J=  90


 TOTAL NUMBER OF POINT SOURCES/SINKS PRESENT IN THE FLOW MODEL =    30

 MAXIMUM STEPSIZE WHICH MEETS STABILITY CRITERION OF THE SINK & SOURCE TERM
 =  12.19    (WHEN MIN. R.F.=1)  AT K=  17, I=   1, J=  91

 MAXIMUM STEPSIZE WHICH MEETS STABILITY CRITERION OF THE DISPERSION TERM
 =  4.030    (WHEN MIN. R.F.=1)  AT K=  17, I=   1, J=  90
     1 CALLS TO GCG PACKAGE FOR TRANSPORT TIME STEP 487 IN FLOW TIME STEP   1 STRESS PERIOD   1
     8 TOTAL ITERATIONS
     1 CALLS TO GCG PACKAGE FOR TRANSPORT TIME STEP 487 IN FLOW TIME STEP   1 STRESS PERIOD   1
     8 TOTAL ITERATIONS
 
 SOLVING FOR HEAD 


     2 CALLS TO PCG ROUTINE FOR TIME STEP   1 IN STRESS PERIOD    1
     8 TOTAL ITERATIONS

 MAXIMUM HEAD CHANGE FOR EACH ITERATION (1 INDICATES THE FIRST INNER ITERATION):

    HEAD CHANGE    HEAD CHANGE    HEAD CHANGE    HEAD CHANGE    HEAD CHANGE 
   LAYER,ROW,COL  LAYER,ROW,COL  LAYER,ROW,COL  LAYER,ROW,COL  LAYER,ROW,COL
 ---------------------------------------------------------------------------
  1 -0.1330E-01  0  0.3492E-02  0  0.2927E-02  0 -0.8710E-02  0  0.9932E-02
   ( 15,  1, 86)  ( 17,  1, 89)  (  8,  1, 12)  ( 11,  1, 57)  ( 11,  1, 56)
  0 -0.2310E-02  0  0.8184E-03  1  0.5742E-03
   ( 11,  1, 54)  ( 11,  1, 51)  ( 11,  1, 59)

 MAXIMUM RESIDUAL FOR EACH ITERATION (1 INDICATES THE FIRST INNER ITERATION):

    RESIDUAL       RESIDUAL       RESIDUAL       RESIDUAL       RESIDUAL    
   LAYER,ROW,COL  LAYER,ROW,COL  LAYER,ROW,COL  LAYER,ROW,COL  LAYER,ROW,COL
 ---------------------------------------------------------------------------
  1 -0.1312E+06  0  0.9191E+05  0  0.8716E+05  0  0.2213E+05  0   5234.    
   ( 21,  1, 89)  ( 19,  1, 89)  ( 19,  1, 89)  ( 19,  1, 89)  ( 17,  1, 87)
  0  -2822.      0  -2372.      1  -2067.    
   ( 22,  1, 87)  ( 22,  1, 87)  ( 22,  1, 87)


 FLOW MODEL IS TRANSIENT
 FLOW MODEL CONTAINS CONSTANT-HEAD CELLS


 MAXIMUM STEPSIZE DURING WHICH ANY PARTICLE CANNOT MOVE MORE THAN ONE CELL
 =  13.21    (WHEN MIN. R.F.=1)  AT K=  17, I=   1, J=  90

 MAXIMUM STEPSIZE WHICH MEETS STABILITY CRITERION OF THE ADVECTION TERM
 (FOR PURE FINITE-DIFFERENCE OPTION, MIXELM=0) 
 =  8.003    (WHEN MIN. R.F.=1)  AT K=  16, I=   1, J=  90


 TOTAL NUMBER OF POINT SOURCES/SINKS PRESENT IN THE FLOW MODEL =    30

 MAXIMUM STEPSIZE WHICH MEETS STABILITY CRITERION OF THE SINK & SOURCE TERM
 =  12.17    (WHEN MIN. R.F.=1)  AT K=  17, I=   1, J=  91

 MAXIMUM STEPSIZE WHICH MEETS STABILITY CRITERION OF THE DISPERSION TERM
 =  4.352    (WHEN MIN. R.F.=1)  AT K=  17, I=   1, J=  90
     1 CALLS TO GCG PACKAGE FOR TRANSPORT TIME STEP 488 IN FLOW TIME STEP   1 STRESS PERIOD   1
    10 TOTAL ITERATIONS
     1 CALLS TO GCG PACKAGE FOR TRANSPORT TIME STEP 488 IN FLOW TIME STEP   1 STRESS PERIOD   1
     8 TOTAL ITERATIONS
 
 SOLVING FOR HEAD 


     2 CALLS TO PCG ROUTINE FOR TIME STEP   1 IN STRESS PERIOD    1
     9 TOTAL ITERATIONS

 MAXIMUM HEAD CHANGE FOR EACH ITERATION (1 INDICATES THE FIRST INNER ITERATION):

    HEAD CHANGE    HEAD CHANGE    HEAD CHANGE    HEAD CHANGE    HEAD CHANGE 
   LAYER,ROW,COL  LAYER,ROW,COL  LAYER,ROW,COL  LAYER,ROW,COL  LAYER,ROW,COL
 ---------------------------------------------------------------------------
  1  0.1388E-01  0  0.5331E-02  0 -0.4075E-02  0 -0.9538E-02  0  0.7649E-02
   ( 15,  1, 86)  (  9,  1, 52)  (  7,  1, 12)  (  8,  1, 52)  (  7,  1, 51)
  0 -0.3264E-02  0 -0.1646E-02  0 -0.8085E-03  1  0.8484E-03
   ( 11,  1, 66)  ( 11,  1, 58)  ( 11,  1, 70)  ( 11,  1, 70)

 MAXIMUM RESIDUAL FOR EACH ITERATION (1 INDICATES THE FIRST INNER ITERATION):

    RESIDUAL       RESIDUAL       RESIDUAL       RESIDUAL       RESIDUAL    
   LAYER,ROW,COL  LAYER,ROW,COL  LAYER,ROW,COL  LAYER,ROW,COL  LAYER,ROW,COL
 ---------------------------------------------------------------------------
  1  0.1315E+06  0 -0.9268E+05  0 -0.9196E+05  0 -0.6623E+05  0  -5765.    
   ( 21,  1, 89)  ( 19,  1, 89)  ( 19,  1, 89)  ( 19,  1, 89)  ( 17,  1, 87)
  0   2824.      0   2640.      0   972.3      1   867.5    
   ( 22,  1, 87)  ( 22,  1, 87)  ( 22,  1, 87)  ( 22,  1, 87)


 FLOW MODEL IS TRANSIENT
 FLOW MODEL CONTAINS CONSTANT-HEAD CELLS


 MAXIMUM STEPSIZE DURING WHICH ANY PARTICLE CANNOT MOVE MORE THAN ONE CELL
 =  12.91    (WHEN MIN. R.F.=1)  AT K=  17, I=   1, J=  90

 MAXIMUM STEPSIZE WHICH MEETS STABILITY CRITERION OF THE ADVECTION TERM
 (FOR PURE FINITE-DIFFERENCE OPTION, MIXELM=0) 
 =  8.057    (WHEN MIN. R.F.=1)  AT K=  16, I=   1, J=  90


 TOTAL NUMBER OF POINT SOURCES/SINKS PRESENT IN THE FLOW MODEL =    30

 MAXIMUM STEPSIZE WHICH MEETS STABILITY CRITERION OF THE SINK & SOURCE TERM
 =  12.29    (WHEN MIN. R.F.=1)  AT K=  17, I=   1, J=  91

 MAXIMUM STEPSIZE WHICH MEETS STABILITY CRITERION OF THE DISPERSION TERM
 =  4.053    (WHEN MIN. R.F.=1)  AT K=  17, I=   1, J=  90
     1 CALLS TO GCG PACKAGE FOR TRANSPORT TIME STEP 489 IN FLOW TIME STEP   1 STRESS PERIOD   1
     8 TOTAL ITERATIONS
     1 CALLS TO GCG PACKAGE FOR TRANSPORT TIME STEP 489 IN FLOW TIME STEP   1 STRESS PERIOD   1
     8 TOTAL ITERATIONS
 
 SOLVING FOR HEAD 


     2 CALLS TO PCG ROUTINE FOR TIME STEP   1 IN STRESS PERIOD    1
     9 TOTAL ITERATIONS

 MAXIMUM HEAD CHANGE FOR EACH ITERATION (1 INDICATES THE FIRST INNER ITERATION):

    HEAD CHANGE    HEAD CHANGE    HEAD CHANGE    HEAD CHANGE    HEAD CHANGE 
   LAYER,ROW,COL  LAYER,ROW,COL  LAYER,ROW,COL  LAYER,ROW,COL  LAYER,ROW,COL
 ---------------------------------------------------------------------------
  1 -0.1356E-01  0  0.3910E-02  0  0.2905E-02  0 -0.9037E-02  0 -0.9352E-02
   ( 15,  1, 86)  ( 17,  1, 89)  (  8,  1, 12)  ( 11,  1, 69)  ( 11,  1, 55)
  0  0.2146E-02  0  0.1515E-02  0  0.6609E-03  1 -0.4568E-03
   ( 11,  1, 57)  ( 11,  1, 64)  ( 11,  1, 70)  ( 11,  1, 70)

 MAXIMUM RESIDUAL FOR EACH ITERATION (1 INDICATES THE FIRST INNER ITERATION):

    RESIDUAL       RESIDUAL       RESIDUAL       RESIDUAL       RESIDUAL    
   LAYER,ROW,COL  LAYER,ROW,COL  LAYER,ROW,COL  LAYER,ROW,COL  LAYER,ROW,COL
 ---------------------------------------------------------------------------
  1 -0.1340E+06  0  0.9531E+05  0  0.9426E+05  0  0.1897E+05  0   4728.    
   ( 21,  1, 89)  ( 19,  1, 89)  ( 19,  1, 89)  ( 19,  1, 89)  ( 17,  1, 87)
  0  -2876.      0  -2364.      0  -756.8      1  -645.8    
   ( 22,  1, 87)  ( 22,  1, 87)  ( 22,  1, 87)  ( 22,  1, 87)


 FLOW MODEL IS TRANSIENT
 FLOW MODEL CONTAINS CONSTANT-HEAD CELLS


 MAXIMUM STEPSIZE DURING WHICH ANY PARTICLE CANNOT MOVE MORE THAN ONE CELL
 =  13.22    (WHEN MIN. R.F.=1)  AT K=  17, I=   1, J=  90

 MAXIMUM STEPSIZE WHICH MEETS STABILITY CRITERION OF THE ADVECTION TERM
 (FOR PURE FINITE-DIFFERENCE OPTION, MIXELM=0) 
 =  8.005    (WHEN MIN. R.F.=1)  AT K=  16, I=   1, J=  90


 TOTAL NUMBER OF POINT SOURCES/SINKS PRESENT IN THE FLOW MODEL =    30

 MAXIMUM STEPSIZE WHICH MEETS STABILITY CRITERION OF THE SINK & SOURCE TERM
 =  12.20    (WHEN MIN. R.F.=1)  AT K=  17, I=   1, J=  91

 MAXIMUM STEPSIZE WHICH MEETS STABILITY CRITERION OF THE DISPERSION TERM
 =  4.364    (WHEN MIN. R.F.=1)  AT K=  17, I=   1, J=  90
     1 CALLS TO GCG PACKAGE FOR TRANSPORT TIME STEP 490 IN FLOW TIME STEP   1 STRESS PERIOD   1
     7 TOTAL ITERATIONS
  MAXIMUM CONCENTRATION CHANGES FOR EACH ITERATION:
  MAX. CHANGE LAYER,ROW,COL MAX. CHANGE LAYER,ROW,COL MAX. CHANGE LAYER,ROW,COL MAX. CHANGE LAYER,ROW,COL MAX. CHANGE LAYER,ROW,COL
 ------------------------------------------------------------------------------------------------------------------------------------
   0.4922E-01 ( 20,  1, 87)  0.3336E-02 ( 19,  1, 87)  0.2215E-02 ( 18,  1, 87)  0.2165E-03 ( 16,  1, 88)  0.1401E-03 ( 17,  1, 89)
   0.3055E-04 ( 16,  1, 90)  0.4222E-06 ( 21,  1, 78)
     1 CALLS TO GCG PACKAGE FOR TRANSPORT TIME STEP 490 IN FLOW TIME STEP   1 STRESS PERIOD   1
     8 TOTAL ITERATIONS
  MAXIMUM CONCENTRATION CHANGES FOR EACH ITERATION:
  MAX. CHANGE LAYER,ROW,COL MAX. CHANGE LAYER,ROW,COL MAX. CHANGE LAYER,ROW,COL MAX. CHANGE LAYER,ROW,COL MAX. CHANGE LAYER,ROW,COL
 ------------------------------------------------------------------------------------------------------------------------------------
   0.5566E-01 ( 20,  1, 87)  0.4102E-02 ( 19,  1, 87)  0.2316E-02 ( 18,  1, 87)  0.2704E-03 ( 18,  1, 87)  0.1400E-03 ( 17,  1, 89)
   0.3736E-04 ( 16,  1, 90)  0.5618E-05 ( 17,  1, 90)  0.6080E-06 ( 16,  1, 89)



 >>>>>>>>>>>>>>>>>>>>>>>>>>>>>>>>>>>>>>>>>>>>>>>>>>>>>>>FOR COMPONENT NO. 01<<<<<<<<<<<<<<<<<<<<<<<<<<<<<<<<<<<<<<<<<<<<<<<<<<<<<<<


                                            -------------------------------------------
                                                      TRANSPORT STEP NO.  490
                                            -------------------------------------------

 TOTAL ELAPSED TIME SINCE BEGINNING OF SIMULATION =   24500.00    D   
 .....................................................................

                     CUMMULATIVE MASS BUDGETS AT END OF TRANSPORT STEP  490, TIME STEP    1, STRESS PERIOD    1
                     ------------------------------------------------------------------------------------------

                                                             IN                           OUT
                                                      ----------------             ----------------
                               CONSTANT CONCENTRATION:    0.000000                    0.000000    
                                        CONSTANT HEAD:   0.9695666E+09              -0.9693635E+09
                                                WELLS:    0.000000                    0.000000    
                                             RECHARGE:    0.000000                    0.000000    
                               1ST/0TH ORDER REACTION:    0.000000                    0.000000    
                                MASS STORAGE (SOLUTE):   0.1355572E+09              -0.1357605E+09
                            ---------------------------------------------------------------------------
                                              [TOTAL]:   0.1105125E+10 KG           -0.1105125E+10 KG  

                                                          NET (IN - OUT):   -179.2834    
                                                   DISCREPANCY (PERCENT):  -0.1622291E-04



 >>>>>>>>>>>>>>>>>>>>>>>>>>>>>>>>>>>>>>>>>>>>>>>>>>>>>>>FOR COMPONENT NO. 02<<<<<<<<<<<<<<<<<<<<<<<<<<<<<<<<<<<<<<<<<<<<<<<<<<<<<<<


                                            -------------------------------------------
                                                      TRANSPORT STEP NO.  490
                                            -------------------------------------------

 TOTAL ELAPSED TIME SINCE BEGINNING OF SIMULATION =   24500.00    D   
 .....................................................................

                     CUMMULATIVE MASS BUDGETS AT END OF TRANSPORT STEP  490, TIME STEP    1, STRESS PERIOD    1
                     ------------------------------------------------------------------------------------------

                                                             IN                           OUT
                                                      ----------------             ----------------
                               CONSTANT CONCENTRATION:    0.000000                    0.000000    
                                        CONSTANT HEAD:    0.000000                  -0.1447440E+12
                                                WELLS:    0.000000                    0.000000    
                                             RECHARGE:    0.000000                    0.000000    
                               1ST/0TH ORDER REACTION:   0.4054750E+12                0.000000    
                                MASS STORAGE (SOLUTE):   0.4533563E+11              -0.3060667E+12
                            ---------------------------------------------------------------------------
                                              [TOTAL]:   0.4508113E+12 KG           -0.4508114E+12 KG  

                                                          NET (IN - OUT):   -49640.08    
                                                   DISCREPANCY (PERCENT):  -0.1101128E-04
 
 SOLVING FOR HEAD 


     2 CALLS TO PCG ROUTINE FOR TIME STEP   1 IN STRESS PERIOD    1
     8 TOTAL ITERATIONS

 MAXIMUM HEAD CHANGE FOR EACH ITERATION (1 INDICATES THE FIRST INNER ITERATION):

    HEAD CHANGE    HEAD CHANGE    HEAD CHANGE    HEAD CHANGE    HEAD CHANGE 
   LAYER,ROW,COL  LAYER,ROW,COL  LAYER,ROW,COL  LAYER,ROW,COL  LAYER,ROW,COL
 ---------------------------------------------------------------------------
  1  0.1332E-01  0 -0.3638E-02  0 -0.2679E-02  0  0.9891E-02  0 -0.1009E-01
   ( 15,  1, 86)  ( 17,  1, 89)  (  8,  1, 12)  ( 11,  1, 50)  ( 11,  1, 50)
  0  0.1479E-02  0 -0.9575E-03  1 -0.5443E-03
   ( 11,  1, 35)  ( 11,  1, 60)  ( 11,  1, 51)

 MAXIMUM RESIDUAL FOR EACH ITERATION (1 INDICATES THE FIRST INNER ITERATION):

    RESIDUAL       RESIDUAL       RESIDUAL       RESIDUAL       RESIDUAL    
   LAYER,ROW,COL  LAYER,ROW,COL  LAYER,ROW,COL  LAYER,ROW,COL  LAYER,ROW,COL
 ---------------------------------------------------------------------------
  1  0.1343E+06  0 -0.9459E+05  0 -0.9090E+05  0 -0.3100E+05  0  -5810.    
   ( 21,  1, 89)  ( 19,  1, 89)  ( 19,  1, 89)  ( 19,  1, 89)  ( 17,  1, 87)
  0   2843.      0   2587.      1   1947.    
   ( 22,  1, 87)  ( 22,  1, 87)  ( 22,  1, 87)


 FLOW MODEL IS TRANSIENT
 FLOW MODEL CONTAINS CONSTANT-HEAD CELLS


 MAXIMUM STEPSIZE DURING WHICH ANY PARTICLE CANNOT MOVE MORE THAN ONE CELL
 =  12.84    (WHEN MIN. R.F.=1)  AT K=  17, I=   1, J=  90

 MAXIMUM STEPSIZE WHICH MEETS STABILITY CRITERION OF THE ADVECTION TERM
 (FOR PURE FINITE-DIFFERENCE OPTION, MIXELM=0) 
 =  8.028    (WHEN MIN. R.F.=1)  AT K=  16, I=   1, J=  90


 TOTAL NUMBER OF POINT SOURCES/SINKS PRESENT IN THE FLOW MODEL =    30

 MAXIMUM STEPSIZE WHICH MEETS STABILITY CRITERION OF THE SINK & SOURCE TERM
 =  12.20    (WHEN MIN. R.F.=1)  AT K=  17, I=   1, J=  91

 MAXIMUM STEPSIZE WHICH MEETS STABILITY CRITERION OF THE DISPERSION TERM
 =  4.023    (WHEN MIN. R.F.=1)  AT K=  17, I=   1, J=  90
     1 CALLS TO GCG PACKAGE FOR TRANSPORT TIME STEP 491 IN FLOW TIME STEP   1 STRESS PERIOD   1
     8 TOTAL ITERATIONS
     1 CALLS TO GCG PACKAGE FOR TRANSPORT TIME STEP 491 IN FLOW TIME STEP   1 STRESS PERIOD   1
     8 TOTAL ITERATIONS
 
 SOLVING FOR HEAD 


     2 CALLS TO PCG ROUTINE FOR TIME STEP   1 IN STRESS PERIOD    1
     9 TOTAL ITERATIONS

 MAXIMUM HEAD CHANGE FOR EACH ITERATION (1 INDICATES THE FIRST INNER ITERATION):

    HEAD CHANGE    HEAD CHANGE    HEAD CHANGE    HEAD CHANGE    HEAD CHANGE 
   LAYER,ROW,COL  LAYER,ROW,COL  LAYER,ROW,COL  LAYER,ROW,COL  LAYER,ROW,COL
 ---------------------------------------------------------------------------
  1 -0.1369E-01  0 -0.8676E-02  0  0.4074E-02  0  0.9205E-02  0 -0.6754E-02
   ( 15,  1, 86)  (  8,  1, 39)  (  7,  1, 12)  (  7,  1, 40)  (  7,  1, 43)
  0 -0.4091E-02  0  0.1365E-02  0  0.7866E-03  1 -0.5839E-03
   ( 11,  1, 49)  ( 11,  1, 49)  ( 11,  1, 70)  ( 11,  1, 70)

 MAXIMUM RESIDUAL FOR EACH ITERATION (1 INDICATES THE FIRST INNER ITERATION):

    RESIDUAL       RESIDUAL       RESIDUAL       RESIDUAL       RESIDUAL    
   LAYER,ROW,COL  LAYER,ROW,COL  LAYER,ROW,COL  LAYER,ROW,COL  LAYER,ROW,COL
 ---------------------------------------------------------------------------
  1 -0.1348E+06  0  0.9458E+05  0  0.9382E+05  0  0.7644E+05  0   6595.    
   ( 21,  1, 89)  ( 19,  1, 89)  ( 19,  1, 89)  ( 19,  1, 89)  ( 17,  1, 87)
  0  -3201.      0  -2613.      0  -1337.      1  -1195.    
   ( 17,  1, 88)  ( 22,  1, 87)  ( 22,  1, 87)  ( 22,  1, 87)


 FLOW MODEL IS TRANSIENT
 FLOW MODEL CONTAINS CONSTANT-HEAD CELLS


 MAXIMUM STEPSIZE DURING WHICH ANY PARTICLE CANNOT MOVE MORE THAN ONE CELL
 =  13.15    (WHEN MIN. R.F.=1)  AT K=  17, I=   1, J=  90

 MAXIMUM STEPSIZE WHICH MEETS STABILITY CRITERION OF THE ADVECTION TERM
 (FOR PURE FINITE-DIFFERENCE OPTION, MIXELM=0) 
 =  7.976    (WHEN MIN. R.F.=1)  AT K=  16, I=   1, J=  90


 TOTAL NUMBER OF POINT SOURCES/SINKS PRESENT IN THE FLOW MODEL =    30

 MAXIMUM STEPSIZE WHICH MEETS STABILITY CRITERION OF THE SINK & SOURCE TERM
 =  12.09    (WHEN MIN. R.F.=1)  AT K=  17, I=   1, J=  91

 MAXIMUM STEPSIZE WHICH MEETS STABILITY CRITERION OF THE DISPERSION TERM
 =  4.332    (WHEN MIN. R.F.=1)  AT K=  17, I=   1, J=  90
     1 CALLS TO GCG PACKAGE FOR TRANSPORT TIME STEP 492 IN FLOW TIME STEP   1 STRESS PERIOD   1
    10 TOTAL ITERATIONS
     1 CALLS TO GCG PACKAGE FOR TRANSPORT TIME STEP 492 IN FLOW TIME STEP   1 STRESS PERIOD   1
     8 TOTAL ITERATIONS
 
 SOLVING FOR HEAD 


     2 CALLS TO PCG ROUTINE FOR TIME STEP   1 IN STRESS PERIOD    1
     8 TOTAL ITERATIONS

 MAXIMUM HEAD CHANGE FOR EACH ITERATION (1 INDICATES THE FIRST INNER ITERATION):

    HEAD CHANGE    HEAD CHANGE    HEAD CHANGE    HEAD CHANGE    HEAD CHANGE 
   LAYER,ROW,COL  LAYER,ROW,COL  LAYER,ROW,COL  LAYER,ROW,COL  LAYER,ROW,COL
 ---------------------------------------------------------------------------
  1  0.1369E-01  0 -0.4116E-02  0 -0.3129E-02  0 -0.8901E-02  0  0.1020E-01
   ( 15,  1, 86)  ( 17,  1, 89)  (  8,  1, 12)  ( 11,  1, 55)  ( 11,  1, 55)
  0 -0.1879E-02  0 -0.8726E-03  1  0.5391E-03
   ( 11,  1, 54)  ( 11,  1, 61)  ( 11,  1, 61)

 MAXIMUM RESIDUAL FOR EACH ITERATION (1 INDICATES THE FIRST INNER ITERATION):

    RESIDUAL       RESIDUAL       RESIDUAL       RESIDUAL       RESIDUAL    
   LAYER,ROW,COL  LAYER,ROW,COL  LAYER,ROW,COL  LAYER,ROW,COL  LAYER,ROW,COL
 ---------------------------------------------------------------------------
  1  0.1337E+06  0 -0.9536E+05  0 -0.9439E+05  0 -0.2225E+05  0   5160.    
   ( 21,  1, 89)  ( 19,  1, 89)  ( 19,  1, 89)  ( 19,  1, 89)  ( 17,  1, 88)
  0   2771.      0   2220.      1   1971.    
   ( 22,  1, 87)  ( 22,  1, 87)  ( 22,  1, 87)


 FLOW MODEL IS TRANSIENT
 FLOW MODEL CONTAINS CONSTANT-HEAD CELLS


 MAXIMUM STEPSIZE DURING WHICH ANY PARTICLE CANNOT MOVE MORE THAN ONE CELL
 =  12.84    (WHEN MIN. R.F.=1)  AT K=  17, I=   1, J=  90

 MAXIMUM STEPSIZE WHICH MEETS STABILITY CRITERION OF THE ADVECTION TERM
 (FOR PURE FINITE-DIFFERENCE OPTION, MIXELM=0) 
 =  8.030    (WHEN MIN. R.F.=1)  AT K=  16, I=   1, J=  90


 TOTAL NUMBER OF POINT SOURCES/SINKS PRESENT IN THE FLOW MODEL =    30

 MAXIMUM STEPSIZE WHICH MEETS STABILITY CRITERION OF THE SINK & SOURCE TERM
 =  12.18    (WHEN MIN. R.F.=1)  AT K=  17, I=   1, J=  91

 MAXIMUM STEPSIZE WHICH MEETS STABILITY CRITERION OF THE DISPERSION TERM
 =  4.022    (WHEN MIN. R.F.=1)  AT K=  17, I=   1, J=  90
     1 CALLS TO GCG PACKAGE FOR TRANSPORT TIME STEP 493 IN FLOW TIME STEP   1 STRESS PERIOD   1
     8 TOTAL ITERATIONS
     1 CALLS TO GCG PACKAGE FOR TRANSPORT TIME STEP 493 IN FLOW TIME STEP   1 STRESS PERIOD   1
     8 TOTAL ITERATIONS
 
 SOLVING FOR HEAD 


     2 CALLS TO PCG ROUTINE FOR TIME STEP   1 IN STRESS PERIOD    1
     8 TOTAL ITERATIONS

 MAXIMUM HEAD CHANGE FOR EACH ITERATION (1 INDICATES THE FIRST INNER ITERATION):

    HEAD CHANGE    HEAD CHANGE    HEAD CHANGE    HEAD CHANGE    HEAD CHANGE 
   LAYER,ROW,COL  LAYER,ROW,COL  LAYER,ROW,COL  LAYER,ROW,COL  LAYER,ROW,COL
 ---------------------------------------------------------------------------
  1 -0.1373E-01  0 -0.4620E-02  0  0.4702E-02  0 -0.9870E-02  0  0.8825E-02
   ( 15,  1, 86)  (  8,  1, 12)  (  8,  1, 12)  (  8,  1, 51)  (  8,  1, 51)
  0  0.1821E-02  0  0.9767E-03  1  0.7473E-03
   ( 11,  1, 60)  ( 11,  1, 70)  ( 11,  1, 59)

 MAXIMUM RESIDUAL FOR EACH ITERATION (1 INDICATES THE FIRST INNER ITERATION):

    RESIDUAL       RESIDUAL       RESIDUAL       RESIDUAL       RESIDUAL    
   LAYER,ROW,COL  LAYER,ROW,COL  LAYER,ROW,COL  LAYER,ROW,COL  LAYER,ROW,COL
 ---------------------------------------------------------------------------
  1 -0.1321E+06  0  0.9261E+05  0  0.9202E+05  0  0.5371E+05  0   6002.    
   ( 21,  1, 89)  ( 19,  1, 89)  ( 19,  1, 89)  ( 19,  1, 89)  ( 17,  1, 87)
  0  -2835.      0  -2591.      1  -1823.    
   ( 22,  1, 87)  ( 22,  1, 87)  ( 22,  1, 87)


 FLOW MODEL IS TRANSIENT
 FLOW MODEL CONTAINS CONSTANT-HEAD CELLS


 MAXIMUM STEPSIZE DURING WHICH ANY PARTICLE CANNOT MOVE MORE THAN ONE CELL
 =  13.19    (WHEN MIN. R.F.=1)  AT K=  17, I=   1, J=  90

 MAXIMUM STEPSIZE WHICH MEETS STABILITY CRITERION OF THE ADVECTION TERM
 (FOR PURE FINITE-DIFFERENCE OPTION, MIXELM=0) 
 =  7.991    (WHEN MIN. R.F.=1)  AT K=  16, I=   1, J=  90


 TOTAL NUMBER OF POINT SOURCES/SINKS PRESENT IN THE FLOW MODEL =    30

 MAXIMUM STEPSIZE WHICH MEETS STABILITY CRITERION OF THE SINK & SOURCE TERM
 =  12.13    (WHEN MIN. R.F.=1)  AT K=  17, I=   1, J=  91

 MAXIMUM STEPSIZE WHICH MEETS STABILITY CRITERION OF THE DISPERSION TERM
 =  4.359    (WHEN MIN. R.F.=1)  AT K=  17, I=   1, J=  90
     1 CALLS TO GCG PACKAGE FOR TRANSPORT TIME STEP 494 IN FLOW TIME STEP   1 STRESS PERIOD   1
    10 TOTAL ITERATIONS
     1 CALLS TO GCG PACKAGE FOR TRANSPORT TIME STEP 494 IN FLOW TIME STEP   1 STRESS PERIOD   1
     8 TOTAL ITERATIONS
 
 SOLVING FOR HEAD 


     2 CALLS TO PCG ROUTINE FOR TIME STEP   1 IN STRESS PERIOD    1
     9 TOTAL ITERATIONS

 MAXIMUM HEAD CHANGE FOR EACH ITERATION (1 INDICATES THE FIRST INNER ITERATION):

    HEAD CHANGE    HEAD CHANGE    HEAD CHANGE    HEAD CHANGE    HEAD CHANGE 
   LAYER,ROW,COL  LAYER,ROW,COL  LAYER,ROW,COL  LAYER,ROW,COL  LAYER,ROW,COL
 ---------------------------------------------------------------------------
  1  0.1370E-01  0  0.8908E-02  0 -0.3848E-02  0 -0.1331E-01  0  0.1003E-01
   ( 15,  1, 86)  ( 11,  1, 59)  (  8,  1, 12)  ( 11,  1, 59)  ( 11,  1, 58)
  0  0.2233E-02  0 -0.1115E-02  0 -0.5697E-03  1 -0.5149E-03
   (  8,  1, 55)  ( 11,  1, 62)  ( 11,  1, 49)  ( 11,  1, 55)

 MAXIMUM RESIDUAL FOR EACH ITERATION (1 INDICATES THE FIRST INNER ITERATION):

    RESIDUAL       RESIDUAL       RESIDUAL       RESIDUAL       RESIDUAL    
   LAYER,ROW,COL  LAYER,ROW,COL  LAYER,ROW,COL  LAYER,ROW,COL  LAYER,ROW,COL
 ---------------------------------------------------------------------------
  1  0.1356E+06  0 -0.9639E+05  0 -0.9554E+05  0 -0.7264E+05  0   6007.    
   ( 21,  1, 89)  ( 19,  1, 89)  ( 19,  1, 89)  ( 19,  1, 89)  ( 17,  1, 88)
  0   3025.      0   2516.      0   1303.      1   1157.    
   ( 17,  1, 88)  ( 22,  1, 87)  ( 22,  1, 87)  ( 22,  1, 87)


 FLOW MODEL IS TRANSIENT
 FLOW MODEL CONTAINS CONSTANT-HEAD CELLS


 MAXIMUM STEPSIZE DURING WHICH ANY PARTICLE CANNOT MOVE MORE THAN ONE CELL
 =  12.88    (WHEN MIN. R.F.=1)  AT K=  17, I=   1, J=  90

 MAXIMUM STEPSIZE WHICH MEETS STABILITY CRITERION OF THE ADVECTION TERM
 (FOR PURE FINITE-DIFFERENCE OPTION, MIXELM=0) 
 =  8.048    (WHEN MIN. R.F.=1)  AT K=  16, I=   1, J=  90


 TOTAL NUMBER OF POINT SOURCES/SINKS PRESENT IN THE FLOW MODEL =    30

 MAXIMUM STEPSIZE WHICH MEETS STABILITY CRITERION OF THE SINK & SOURCE TERM
 =  12.24    (WHEN MIN. R.F.=1)  AT K=  17, I=   1, J=  91

 MAXIMUM STEPSIZE WHICH MEETS STABILITY CRITERION OF THE DISPERSION TERM
 =  4.034    (WHEN MIN. R.F.=1)  AT K=  17, I=   1, J=  90
     1 CALLS TO GCG PACKAGE FOR TRANSPORT TIME STEP 495 IN FLOW TIME STEP   1 STRESS PERIOD   1
     8 TOTAL ITERATIONS
  MAXIMUM CONCENTRATION CHANGES FOR EACH ITERATION:
  MAX. CHANGE LAYER,ROW,COL MAX. CHANGE LAYER,ROW,COL MAX. CHANGE LAYER,ROW,COL MAX. CHANGE LAYER,ROW,COL MAX. CHANGE LAYER,ROW,COL
 ------------------------------------------------------------------------------------------------------------------------------------
   0.5208E-01 ( 20,  1, 87)  0.4305E-02 ( 19,  1, 89)  0.2057E-02 ( 17,  1, 86)  0.4857E-03 ( 20,  1, 89)  0.9025E-04 ( 16,  1, 89)
   0.2078E-04 ( 20,  1, 89)  0.2254E-04 ( 16,  1, 90)  0.6652E-06 ( 17,  1, 90)
     1 CALLS TO GCG PACKAGE FOR TRANSPORT TIME STEP 495 IN FLOW TIME STEP   1 STRESS PERIOD   1
     8 TOTAL ITERATIONS
  MAXIMUM CONCENTRATION CHANGES FOR EACH ITERATION:
  MAX. CHANGE LAYER,ROW,COL MAX. CHANGE LAYER,ROW,COL MAX. CHANGE LAYER,ROW,COL MAX. CHANGE LAYER,ROW,COL MAX. CHANGE LAYER,ROW,COL
 ------------------------------------------------------------------------------------------------------------------------------------
   0.6016E-01 ( 20,  1, 87)  0.5109E-02 ( 19,  1, 89)  0.2000E-02 ( 18,  1, 86)  0.4148E-03 ( 23,  1, 87)  0.1165E-03 ( 16,  1, 89)
   0.2587E-04 ( 23,  1, 87)  0.1900E-04 ( 17,  1, 90)  0.8432E-06 ( 17,  1, 90)
 
 SOLVING FOR HEAD 


     2 CALLS TO PCG ROUTINE FOR TIME STEP   1 IN STRESS PERIOD    1
     9 TOTAL ITERATIONS

 MAXIMUM HEAD CHANGE FOR EACH ITERATION (1 INDICATES THE FIRST INNER ITERATION):

    HEAD CHANGE    HEAD CHANGE    HEAD CHANGE    HEAD CHANGE    HEAD CHANGE 
   LAYER,ROW,COL  LAYER,ROW,COL  LAYER,ROW,COL  LAYER,ROW,COL  LAYER,ROW,COL
 ---------------------------------------------------------------------------
  1 -0.1361E-01  0  0.4063E-02  0  0.4188E-02  0  0.7147E-02  0 -0.7544E-02
   ( 15,  1, 86)  ( 17,  1, 89)  (  8,  1, 12)  ( 11,  1, 56)  (  8,  1, 47)
  0  0.1707E-02  0  0.1045E-02  0  0.8864E-03  1 -0.8171E-03
   ( 11,  1, 67)  ( 11,  1, 55)  ( 11,  1, 70)  ( 11,  1, 70)

 MAXIMUM RESIDUAL FOR EACH ITERATION (1 INDICATES THE FIRST INNER ITERATION):

    RESIDUAL       RESIDUAL       RESIDUAL       RESIDUAL       RESIDUAL    
   LAYER,ROW,COL  LAYER,ROW,COL  LAYER,ROW,COL  LAYER,ROW,COL  LAYER,ROW,COL
 ---------------------------------------------------------------------------
  1 -0.1335E+06  0  0.9450E+05  0  0.9379E+05  0  0.2727E+05  0   5577.    
   ( 21,  1, 89)  ( 19,  1, 89)  ( 19,  1, 89)  ( 19,  1, 89)  ( 17,  1, 87)
  0  -2774.      0  -2516.      0  -893.5      1  -786.1    
   ( 22,  1, 87)  ( 22,  1, 87)  ( 22,  1, 87)  ( 22,  1, 87)


 FLOW MODEL IS TRANSIENT
 FLOW MODEL CONTAINS CONSTANT-HEAD CELLS


 MAXIMUM STEPSIZE DURING WHICH ANY PARTICLE CANNOT MOVE MORE THAN ONE CELL
 =  13.23    (WHEN MIN. R.F.=1)  AT K=  17, I=   1, J=  90

 MAXIMUM STEPSIZE WHICH MEETS STABILITY CRITERION OF THE ADVECTION TERM
 (FOR PURE FINITE-DIFFERENCE OPTION, MIXELM=0) 
 =  8.006    (WHEN MIN. R.F.=1)  AT K=  16, I=   1, J=  90


 TOTAL NUMBER OF POINT SOURCES/SINKS PRESENT IN THE FLOW MODEL =    30

 MAXIMUM STEPSIZE WHICH MEETS STABILITY CRITERION OF THE SINK & SOURCE TERM
 =  12.18    (WHEN MIN. R.F.=1)  AT K=  17, I=   1, J=  91

 MAXIMUM STEPSIZE WHICH MEETS STABILITY CRITERION OF THE DISPERSION TERM
 =  4.381    (WHEN MIN. R.F.=1)  AT K=  17, I=   1, J=  90
     1 CALLS TO GCG PACKAGE FOR TRANSPORT TIME STEP 496 IN FLOW TIME STEP   1 STRESS PERIOD   1
     9 TOTAL ITERATIONS
     1 CALLS TO GCG PACKAGE FOR TRANSPORT TIME STEP 496 IN FLOW TIME STEP   1 STRESS PERIOD   1
     8 TOTAL ITERATIONS
 
 SOLVING FOR HEAD 


     2 CALLS TO PCG ROUTINE FOR TIME STEP   1 IN STRESS PERIOD    1
     8 TOTAL ITERATIONS

 MAXIMUM HEAD CHANGE FOR EACH ITERATION (1 INDICATES THE FIRST INNER ITERATION):

    HEAD CHANGE    HEAD CHANGE    HEAD CHANGE    HEAD CHANGE    HEAD CHANGE 
   LAYER,ROW,COL  LAYER,ROW,COL  LAYER,ROW,COL  LAYER,ROW,COL  LAYER,ROW,COL
 ---------------------------------------------------------------------------
  1  0.1335E-01  0 -0.3866E-02  0 -0.2384E-02  0 -0.1119E-01  0  0.1187E-01
   ( 15,  1, 86)  ( 17,  1, 89)  (  8,  1, 12)  ( 11,  1, 50)  ( 11,  1, 50)
  0  0.1634E-02  0 -0.7829E-03  1 -0.6165E-03
   ( 11,  1, 65)  ( 11,  1, 63)  ( 11,  1, 38)

 MAXIMUM RESIDUAL FOR EACH ITERATION (1 INDICATES THE FIRST INNER ITERATION):

    RESIDUAL       RESIDUAL       RESIDUAL       RESIDUAL       RESIDUAL    
   LAYER,ROW,COL  LAYER,ROW,COL  LAYER,ROW,COL  LAYER,ROW,COL  LAYER,ROW,COL
 ---------------------------------------------------------------------------
  1  0.1344E+06  0 -0.9468E+05  0 -0.9267E+05  0 -0.2725E+05  0  -5477.    
   ( 21,  1, 89)  ( 19,  1, 89)  ( 19,  1, 89)  ( 19,  1, 89)  ( 17,  1, 87)
  0   2835.      0   2541.      1   2058.    
   ( 22,  1, 87)  ( 22,  1, 87)  ( 22,  1, 87)


 FLOW MODEL IS TRANSIENT
 FLOW MODEL CONTAINS CONSTANT-HEAD CELLS


 MAXIMUM STEPSIZE DURING WHICH ANY PARTICLE CANNOT MOVE MORE THAN ONE CELL
 =  12.84    (WHEN MIN. R.F.=1)  AT K=  17, I=   1, J=  90

 MAXIMUM STEPSIZE WHICH MEETS STABILITY CRITERION OF THE ADVECTION TERM
 (FOR PURE FINITE-DIFFERENCE OPTION, MIXELM=0) 
 =  8.031    (WHEN MIN. R.F.=1)  AT K=  16, I=   1, J=  90


 TOTAL NUMBER OF POINT SOURCES/SINKS PRESENT IN THE FLOW MODEL =    30

 MAXIMUM STEPSIZE WHICH MEETS STABILITY CRITERION OF THE SINK & SOURCE TERM
 =  12.20    (WHEN MIN. R.F.=1)  AT K=  17, I=   1, J=  91

 MAXIMUM STEPSIZE WHICH MEETS STABILITY CRITERION OF THE DISPERSION TERM
 =  4.025    (WHEN MIN. R.F.=1)  AT K=  17, I=   1, J=  90
     1 CALLS TO GCG PACKAGE FOR TRANSPORT TIME STEP 497 IN FLOW TIME STEP   1 STRESS PERIOD   1
     8 TOTAL ITERATIONS
     1 CALLS TO GCG PACKAGE FOR TRANSPORT TIME STEP 497 IN FLOW TIME STEP   1 STRESS PERIOD   1
     8 TOTAL ITERATIONS
 
 SOLVING FOR HEAD 


     2 CALLS TO PCG ROUTINE FOR TIME STEP   1 IN STRESS PERIOD    1
     9 TOTAL ITERATIONS

 MAXIMUM HEAD CHANGE FOR EACH ITERATION (1 INDICATES THE FIRST INNER ITERATION):

    HEAD CHANGE    HEAD CHANGE    HEAD CHANGE    HEAD CHANGE    HEAD CHANGE 
   LAYER,ROW,COL  LAYER,ROW,COL  LAYER,ROW,COL  LAYER,ROW,COL  LAYER,ROW,COL
 ---------------------------------------------------------------------------
  1 -0.1373E-01  0 -0.7124E-02  0  0.6126E-02  0 -0.9992E-02  0  0.6872E-02
   ( 15,  1, 86)  ( 11,  1, 37)  (  8,  1, 12)  (  6,  1, 44)  (  8,  1, 47)
  0  0.4009E-02  0 -0.1449E-02  0  0.9104E-03  1 -0.7173E-03
   ( 11,  1, 49)  ( 11,  1, 50)  ( 11,  1, 55)  ( 11,  1, 55)

 MAXIMUM RESIDUAL FOR EACH ITERATION (1 INDICATES THE FIRST INNER ITERATION):

    RESIDUAL       RESIDUAL       RESIDUAL       RESIDUAL       RESIDUAL    
   LAYER,ROW,COL  LAYER,ROW,COL  LAYER,ROW,COL  LAYER,ROW,COL  LAYER,ROW,COL
 ---------------------------------------------------------------------------
  1 -0.1364E+06  0  0.9611E+05  0  0.9576E+05  0  0.7717E+05  0   6369.    
   ( 21,  1, 89)  ( 19,  1, 89)  ( 19,  1, 89)  ( 19,  1, 89)  ( 17,  1, 87)
  0  -3026.      0  -2564.      0  -1497.      1  -1332.    
   ( 17,  1, 88)  ( 22,  1, 87)  ( 22,  1, 87)  ( 22,  1, 87)


 FLOW MODEL IS TRANSIENT
 FLOW MODEL CONTAINS CONSTANT-HEAD CELLS


 MAXIMUM STEPSIZE DURING WHICH ANY PARTICLE CANNOT MOVE MORE THAN ONE CELL
 =  13.16    (WHEN MIN. R.F.=1)  AT K=  17, I=   1, J=  90

 MAXIMUM STEPSIZE WHICH MEETS STABILITY CRITERION OF THE ADVECTION TERM
 (FOR PURE FINITE-DIFFERENCE OPTION, MIXELM=0) 
 =  7.979    (WHEN MIN. R.F.=1)  AT K=  16, I=   1, J=  90


 TOTAL NUMBER OF POINT SOURCES/SINKS PRESENT IN THE FLOW MODEL =    30

 MAXIMUM STEPSIZE WHICH MEETS STABILITY CRITERION OF THE SINK & SOURCE TERM
 =  12.09    (WHEN MIN. R.F.=1)  AT K=  17, I=   1, J=  91

 MAXIMUM STEPSIZE WHICH MEETS STABILITY CRITERION OF THE DISPERSION TERM
 =  4.348    (WHEN MIN. R.F.=1)  AT K=  17, I=   1, J=  90
     1 CALLS TO GCG PACKAGE FOR TRANSPORT TIME STEP 498 IN FLOW TIME STEP   1 STRESS PERIOD   1
     8 TOTAL ITERATIONS
     1 CALLS TO GCG PACKAGE FOR TRANSPORT TIME STEP 498 IN FLOW TIME STEP   1 STRESS PERIOD   1
     8 TOTAL ITERATIONS
 
 SOLVING FOR HEAD 


     2 CALLS TO PCG ROUTINE FOR TIME STEP   1 IN STRESS PERIOD    1
     8 TOTAL ITERATIONS

 MAXIMUM HEAD CHANGE FOR EACH ITERATION (1 INDICATES THE FIRST INNER ITERATION):

    HEAD CHANGE    HEAD CHANGE    HEAD CHANGE    HEAD CHANGE    HEAD CHANGE 
   LAYER,ROW,COL  LAYER,ROW,COL  LAYER,ROW,COL  LAYER,ROW,COL  LAYER,ROW,COL
 ---------------------------------------------------------------------------
  1  0.1376E-01  0 -0.4220E-02  0 -0.3897E-02  0  0.1155E-01  0 -0.1147E-01
   ( 15,  1, 86)  ( 17,  1, 89)  (  8,  1, 12)  ( 11,  1, 54)  ( 11,  1, 54)
  0 -0.2223E-02  0 -0.6005E-03  1 -0.4650E-03
   ( 11,  1, 68)  ( 11,  1, 49)  ( 11,  1, 56)

 MAXIMUM RESIDUAL FOR EACH ITERATION (1 INDICATES THE FIRST INNER ITERATION):

    RESIDUAL       RESIDUAL       RESIDUAL       RESIDUAL       RESIDUAL    
   LAYER,ROW,COL  LAYER,ROW,COL  LAYER,ROW,COL  LAYER,ROW,COL  LAYER,ROW,COL
 ---------------------------------------------------------------------------
  1  0.1348E+06  0 -0.9595E+05  0 -0.9516E+05  0 -0.2477E+05  0   5405.    
   ( 21,  1, 89)  ( 19,  1, 89)  ( 19,  1, 89)  ( 19,  1, 89)  ( 17,  1, 88)
  0   2766.      0   2474.      1   2021.    
   ( 22,  1, 87)  ( 22,  1, 87)  ( 22,  1, 87)


 FLOW MODEL IS TRANSIENT
 FLOW MODEL CONTAINS CONSTANT-HEAD CELLS


 MAXIMUM STEPSIZE DURING WHICH ANY PARTICLE CANNOT MOVE MORE THAN ONE CELL
 =  12.84    (WHEN MIN. R.F.=1)  AT K=  17, I=   1, J=  90

 MAXIMUM STEPSIZE WHICH MEETS STABILITY CRITERION OF THE ADVECTION TERM
 (FOR PURE FINITE-DIFFERENCE OPTION, MIXELM=0) 
 =  8.032    (WHEN MIN. R.F.=1)  AT K=  16, I=   1, J=  90


 TOTAL NUMBER OF POINT SOURCES/SINKS PRESENT IN THE FLOW MODEL =    30

 MAXIMUM STEPSIZE WHICH MEETS STABILITY CRITERION OF THE SINK & SOURCE TERM
 =  12.19    (WHEN MIN. R.F.=1)  AT K=  17, I=   1, J=  91

 MAXIMUM STEPSIZE WHICH MEETS STABILITY CRITERION OF THE DISPERSION TERM
 =  4.022    (WHEN MIN. R.F.=1)  AT K=  17, I=   1, J=  90
     1 CALLS TO GCG PACKAGE FOR TRANSPORT TIME STEP 499 IN FLOW TIME STEP   1 STRESS PERIOD   1
     8 TOTAL ITERATIONS
     1 CALLS TO GCG PACKAGE FOR TRANSPORT TIME STEP 499 IN FLOW TIME STEP   1 STRESS PERIOD   1
     8 TOTAL ITERATIONS
 
 SOLVING FOR HEAD 


     2 CALLS TO PCG ROUTINE FOR TIME STEP   1 IN STRESS PERIOD    1
     9 TOTAL ITERATIONS

 MAXIMUM HEAD CHANGE FOR EACH ITERATION (1 INDICATES THE FIRST INNER ITERATION):

    HEAD CHANGE    HEAD CHANGE    HEAD CHANGE    HEAD CHANGE    HEAD CHANGE 
   LAYER,ROW,COL  LAYER,ROW,COL  LAYER,ROW,COL  LAYER,ROW,COL  LAYER,ROW,COL
 ---------------------------------------------------------------------------
  1 -0.1372E-01  0 -0.7768E-02  0  0.4838E-02  0  0.9299E-02  0 -0.6543E-02
   ( 15,  1, 86)  (  8,  1, 46)  (  7,  1, 12)  (  8,  1, 48)  (  9,  1, 47)
  0 -0.3665E-02  0  0.1724E-02  0  0.6585E-03  1  0.6651E-03
   ( 11,  1, 55)  ( 11,  1, 55)  ( 11,  1, 70)  ( 11,  1, 49)

 MAXIMUM RESIDUAL FOR EACH ITERATION (1 INDICATES THE FIRST INNER ITERATION):

    RESIDUAL       RESIDUAL       RESIDUAL       RESIDUAL       RESIDUAL    
   LAYER,ROW,COL  LAYER,ROW,COL  LAYER,ROW,COL  LAYER,ROW,COL  LAYER,ROW,COL
 ---------------------------------------------------------------------------
  1 -0.1342E+06  0  0.9456E+05  0  0.9398E+05  0  0.7602E+05  0   6387.    
   ( 21,  1, 89)  ( 19,  1, 89)  ( 19,  1, 89)  ( 19,  1, 89)  ( 17,  1, 87)
  0  -3032.      0  -2579.      0  -1410.      1  -1258.    
   ( 17,  1, 88)  ( 22,  1, 87)  ( 22,  1, 87)  ( 22,  1, 87)


 FLOW MODEL IS TRANSIENT
 FLOW MODEL CONTAINS CONSTANT-HEAD CELLS


 MAXIMUM STEPSIZE DURING WHICH ANY PARTICLE CANNOT MOVE MORE THAN ONE CELL
 =  13.20    (WHEN MIN. R.F.=1)  AT K=  17, I=   1, J=  90

 MAXIMUM STEPSIZE WHICH MEETS STABILITY CRITERION OF THE ADVECTION TERM
 (FOR PURE FINITE-DIFFERENCE OPTION, MIXELM=0) 
 =  7.989    (WHEN MIN. R.F.=1)  AT K=  16, I=   1, J=  90


 TOTAL NUMBER OF POINT SOURCES/SINKS PRESENT IN THE FLOW MODEL =    30

 MAXIMUM STEPSIZE WHICH MEETS STABILITY CRITERION OF THE SINK & SOURCE TERM
 =  12.13    (WHEN MIN. R.F.=1)  AT K=  17, I=   1, J=  91

 MAXIMUM STEPSIZE WHICH MEETS STABILITY CRITERION OF THE DISPERSION TERM
 =  4.368    (WHEN MIN. R.F.=1)  AT K=  17, I=   1, J=  90
     1 CALLS TO GCG PACKAGE FOR TRANSPORT TIME STEP 500 IN FLOW TIME STEP   1 STRESS PERIOD   1
    10 TOTAL ITERATIONS
  MAXIMUM CONCENTRATION CHANGES FOR EACH ITERATION:
  MAX. CHANGE LAYER,ROW,COL MAX. CHANGE LAYER,ROW,COL MAX. CHANGE LAYER,ROW,COL MAX. CHANGE LAYER,ROW,COL MAX. CHANGE LAYER,ROW,COL
 ------------------------------------------------------------------------------------------------------------------------------------
   0.4865E-01 ( 20,  1, 87)  0.3294E-02 ( 19,  1, 87)  0.2174E-02 ( 18,  1, 87)  0.2134E-03 ( 16,  1, 88)  0.1433E-03 ( 17,  1, 89)
   0.2842E-04 ( 16,  1, 90)  0.1792E-05 ( 21,  1, 78)  0.1613E-05 ( 21,  1, 78)  0.1675E-05 ( 16,  1, 89)  0.1205E-06 ( 17,  1, 89)
     1 CALLS TO GCG PACKAGE FOR TRANSPORT TIME STEP 500 IN FLOW TIME STEP   1 STRESS PERIOD   1
     8 TOTAL ITERATIONS
  MAXIMUM CONCENTRATION CHANGES FOR EACH ITERATION:
  MAX. CHANGE LAYER,ROW,COL MAX. CHANGE LAYER,ROW,COL MAX. CHANGE LAYER,ROW,COL MAX. CHANGE LAYER,ROW,COL MAX. CHANGE LAYER,ROW,COL
 ------------------------------------------------------------------------------------------------------------------------------------
   0.5595E-01 ( 20,  1, 87)  0.4054E-02 ( 19,  1, 87)  0.2309E-02 ( 18,  1, 87)  0.2695E-03 ( 23,  1, 88)  0.1363E-03 ( 17,  1, 89)
   0.3726E-04 ( 16,  1, 90)  0.5369E-05 ( 17,  1, 90)  0.6202E-06 ( 16,  1, 89)



 >>>>>>>>>>>>>>>>>>>>>>>>>>>>>>>>>>>>>>>>>>>>>>>>>>>>>>>FOR COMPONENT NO. 01<<<<<<<<<<<<<<<<<<<<<<<<<<<<<<<<<<<<<<<<<<<<<<<<<<<<<<<


                                            -------------------------------------------
                                                      TRANSPORT STEP NO.  500
                                            -------------------------------------------

 TOTAL ELAPSED TIME SINCE BEGINNING OF SIMULATION =   25000.00    D   
 .....................................................................

                     CUMMULATIVE MASS BUDGETS AT END OF TRANSPORT STEP  500, TIME STEP    1, STRESS PERIOD    1
                     ------------------------------------------------------------------------------------------

                                                             IN                           OUT
                                                      ----------------             ----------------
                               CONSTANT CONCENTRATION:    0.000000                    0.000000    
                                        CONSTANT HEAD:   0.9893635E+09              -0.9891610E+09
                                                WELLS:    0.000000                    0.000000    
                                             RECHARGE:    0.000000                    0.000000    
                               1ST/0TH ORDER REACTION:    0.000000                    0.000000    
                                MASS STORAGE (SOLUTE):   0.1383298E+09              -0.1385324E+09
                            ---------------------------------------------------------------------------
                                              [TOTAL]:   0.1127694E+10 KG           -0.1127694E+10 KG  

                                                          NET (IN - OUT):   -176.8867    
                                                   DISCREPANCY (PERCENT):  -0.1568569E-04



 >>>>>>>>>>>>>>>>>>>>>>>>>>>>>>>>>>>>>>>>>>>>>>>>>>>>>>>FOR COMPONENT NO. 02<<<<<<<<<<<<<<<<<<<<<<<<<<<<<<<<<<<<<<<<<<<<<<<<<<<<<<<


                                            -------------------------------------------
                                                      TRANSPORT STEP NO.  500
                                            -------------------------------------------

 TOTAL ELAPSED TIME SINCE BEGINNING OF SIMULATION =   25000.00    D   
 .....................................................................

                     CUMMULATIVE MASS BUDGETS AT END OF TRANSPORT STEP  500, TIME STEP    1, STRESS PERIOD    1
                     ------------------------------------------------------------------------------------------

                                                             IN                           OUT
                                                      ----------------             ----------------
                               CONSTANT CONCENTRATION:    0.000000                    0.000000    
                                        CONSTANT HEAD:    0.000000                  -0.1497652E+12
                                                WELLS:    0.000000                    0.000000    
                                             RECHARGE:    0.000000                    0.000000    
                               1ST/0TH ORDER REACTION:   0.4137500E+12                0.000000    
                                MASS STORAGE (SOLUTE):   0.4728773E+11              -0.3112726E+12
                            ---------------------------------------------------------------------------
                                              [TOTAL]:   0.4610384E+12 KG           -0.4610385E+12 KG  

                                                          NET (IN - OUT):   -52160.54    
                                                   DISCREPANCY (PERCENT):  -0.1131371E-04
 
 SOLVING FOR HEAD 


     2 CALLS TO PCG ROUTINE FOR TIME STEP   1 IN STRESS PERIOD    1
     8 TOTAL ITERATIONS

 MAXIMUM HEAD CHANGE FOR EACH ITERATION (1 INDICATES THE FIRST INNER ITERATION):

    HEAD CHANGE    HEAD CHANGE    HEAD CHANGE    HEAD CHANGE    HEAD CHANGE 
   LAYER,ROW,COL  LAYER,ROW,COL  LAYER,ROW,COL  LAYER,ROW,COL  LAYER,ROW,COL
 ---------------------------------------------------------------------------
  1  0.1363E-01  0 -0.4225E-02  0 -0.3161E-02  0 -0.9233E-02  0  0.1053E-01
   ( 15,  1, 86)  ( 17,  1, 89)  (  8,  1, 12)  ( 11,  1, 50)  ( 11,  1, 51)
  0 -0.2118E-02  0 -0.9466E-03  1  0.6318E-03
   ( 11,  1, 53)  ( 11,  1, 63)  ( 11,  1, 63)

 MAXIMUM RESIDUAL FOR EACH ITERATION (1 INDICATES THE FIRST INNER ITERATION):

    RESIDUAL       RESIDUAL       RESIDUAL       RESIDUAL       RESIDUAL    
   LAYER,ROW,COL  LAYER,ROW,COL  LAYER,ROW,COL  LAYER,ROW,COL  LAYER,ROW,COL
 ---------------------------------------------------------------------------
  1  0.1356E+06  0 -0.9630E+05  0 -0.9533E+05  0 -0.2199E+05  0   5299.    
   ( 21,  1, 89)  ( 19,  1, 89)  ( 19,  1, 89)  ( 19,  1, 89)  ( 17,  1, 88)
  0   2753.      0   2223.      1   1936.    
   ( 22,  1, 87)  ( 22,  1, 87)  ( 22,  1, 87)


 FLOW MODEL IS TRANSIENT
 FLOW MODEL CONTAINS CONSTANT-HEAD CELLS


 MAXIMUM STEPSIZE DURING WHICH ANY PARTICLE CANNOT MOVE MORE THAN ONE CELL
 =  12.84    (WHEN MIN. R.F.=1)  AT K=  17, I=   1, J=  90

 MAXIMUM STEPSIZE WHICH MEETS STABILITY CRITERION OF THE ADVECTION TERM
 (FOR PURE FINITE-DIFFERENCE OPTION, MIXELM=0) 
 =  8.033    (WHEN MIN. R.F.=1)  AT K=  16, I=   1, J=  90


 TOTAL NUMBER OF POINT SOURCES/SINKS PRESENT IN THE FLOW MODEL =    30

 MAXIMUM STEPSIZE WHICH MEETS STABILITY CRITERION OF THE SINK & SOURCE TERM
 =  12.20    (WHEN MIN. R.F.=1)  AT K=  17, I=   1, J=  91

 MAXIMUM STEPSIZE WHICH MEETS STABILITY CRITERION OF THE DISPERSION TERM
 =  4.023    (WHEN MIN. R.F.=1)  AT K=  17, I=   1, J=  90
     1 CALLS TO GCG PACKAGE FOR TRANSPORT TIME STEP 501 IN FLOW TIME STEP   1 STRESS PERIOD   1
     8 TOTAL ITERATIONS
     1 CALLS TO GCG PACKAGE FOR TRANSPORT TIME STEP 501 IN FLOW TIME STEP   1 STRESS PERIOD   1
     8 TOTAL ITERATIONS
 
 SOLVING FOR HEAD 


     2 CALLS TO PCG ROUTINE FOR TIME STEP   1 IN STRESS PERIOD    1
     9 TOTAL ITERATIONS

 MAXIMUM HEAD CHANGE FOR EACH ITERATION (1 INDICATES THE FIRST INNER ITERATION):

    HEAD CHANGE    HEAD CHANGE    HEAD CHANGE    HEAD CHANGE    HEAD CHANGE 
   LAYER,ROW,COL  LAYER,ROW,COL  LAYER,ROW,COL  LAYER,ROW,COL  LAYER,ROW,COL
 ---------------------------------------------------------------------------
  1 -0.1370E-01  0 -0.4724E-02  0  0.4911E-02  0 -0.1114E-01  0 -0.8615E-02
   ( 15,  1, 86)  (  8,  1, 12)  (  8,  1, 12)  ( 11,  1, 63)  ( 11,  1, 38)
  0  0.3069E-02  0  0.1128E-02  0  0.5128E-03  1 -0.3865E-03
   ( 11,  1, 49)  ( 11,  1, 55)  ( 11,  1, 65)  ( 11,  1, 66)

 MAXIMUM RESIDUAL FOR EACH ITERATION (1 INDICATES THE FIRST INNER ITERATION):

    RESIDUAL       RESIDUAL       RESIDUAL       RESIDUAL       RESIDUAL    
   LAYER,ROW,COL  LAYER,ROW,COL  LAYER,ROW,COL  LAYER,ROW,COL  LAYER,ROW,COL
 ---------------------------------------------------------------------------
  1 -0.1349E+06  0  0.9539E+05  0  0.9480E+05  0  0.5345E+05  0   6143.    
   ( 21,  1, 89)  ( 19,  1, 89)  ( 19,  1, 89)  ( 19,  1, 89)  ( 17,  1, 87)
  0  -2946.      0  -2547.      0  -754.8      1  -663.7    
   ( 17,  1, 88)  ( 22,  1, 87)  ( 22,  1, 87)  ( 22,  1, 87)


 FLOW MODEL IS TRANSIENT
 FLOW MODEL CONTAINS CONSTANT-HEAD CELLS


 MAXIMUM STEPSIZE DURING WHICH ANY PARTICLE CANNOT MOVE MORE THAN ONE CELL
 =  13.19    (WHEN MIN. R.F.=1)  AT K=  17, I=   1, J=  90

 MAXIMUM STEPSIZE WHICH MEETS STABILITY CRITERION OF THE ADVECTION TERM
 (FOR PURE FINITE-DIFFERENCE OPTION, MIXELM=0) 
 =  7.986    (WHEN MIN. R.F.=1)  AT K=  16, I=   1, J=  90


 TOTAL NUMBER OF POINT SOURCES/SINKS PRESENT IN THE FLOW MODEL =    30

 MAXIMUM STEPSIZE WHICH MEETS STABILITY CRITERION OF THE SINK & SOURCE TERM
 =  12.13    (WHEN MIN. R.F.=1)  AT K=  17, I=   1, J=  91

 MAXIMUM STEPSIZE WHICH MEETS STABILITY CRITERION OF THE DISPERSION TERM
 =  4.366    (WHEN MIN. R.F.=1)  AT K=  17, I=   1, J=  90
     1 CALLS TO GCG PACKAGE FOR TRANSPORT TIME STEP 502 IN FLOW TIME STEP   1 STRESS PERIOD   1
    10 TOTAL ITERATIONS
     1 CALLS TO GCG PACKAGE FOR TRANSPORT TIME STEP 502 IN FLOW TIME STEP   1 STRESS PERIOD   1
     8 TOTAL ITERATIONS
 
 SOLVING FOR HEAD 


     2 CALLS TO PCG ROUTINE FOR TIME STEP   1 IN STRESS PERIOD    1
     8 TOTAL ITERATIONS

 MAXIMUM HEAD CHANGE FOR EACH ITERATION (1 INDICATES THE FIRST INNER ITERATION):

    HEAD CHANGE    HEAD CHANGE    HEAD CHANGE    HEAD CHANGE    HEAD CHANGE 
   LAYER,ROW,COL  LAYER,ROW,COL  LAYER,ROW,COL  LAYER,ROW,COL  LAYER,ROW,COL
 ---------------------------------------------------------------------------
  1  0.1348E-01  0 -0.4055E-02  0 -0.2599E-02  0 -0.8809E-02  0  0.9590E-02
   ( 15,  1, 86)  ( 17,  1, 89)  (  8,  1, 12)  ( 11,  1, 55)  ( 11,  1, 55)
  0 -0.1336E-02  0 -0.6471E-03  1 -0.4848E-03
   ( 11,  1, 54)  ( 11,  1, 45)  ( 11,  1, 68)

 MAXIMUM RESIDUAL FOR EACH ITERATION (1 INDICATES THE FIRST INNER ITERATION):

    RESIDUAL       RESIDUAL       RESIDUAL       RESIDUAL       RESIDUAL    
   LAYER,ROW,COL  LAYER,ROW,COL  LAYER,ROW,COL  LAYER,ROW,COL  LAYER,ROW,COL
 ---------------------------------------------------------------------------
  1  0.1349E+06  0 -0.9533E+05  0 -0.9412E+05  0 -0.2900E+05  0  -5473.    
   ( 21,  1, 89)  ( 19,  1, 89)  ( 19,  1, 89)  ( 19,  1, 89)  ( 17,  1, 87)
  0   2788.      0   2291.      1   2024.    
   ( 22,  1, 87)  ( 22,  1, 87)  ( 22,  1, 87)


 FLOW MODEL IS TRANSIENT
 FLOW MODEL CONTAINS CONSTANT-HEAD CELLS


 MAXIMUM STEPSIZE DURING WHICH ANY PARTICLE CANNOT MOVE MORE THAN ONE CELL
 =  12.82    (WHEN MIN. R.F.=1)  AT K=  17, I=   1, J=  90

 MAXIMUM STEPSIZE WHICH MEETS STABILITY CRITERION OF THE ADVECTION TERM
 (FOR PURE FINITE-DIFFERENCE OPTION, MIXELM=0) 
 =  8.023    (WHEN MIN. R.F.=1)  AT K=  16, I=   1, J=  90


 TOTAL NUMBER OF POINT SOURCES/SINKS PRESENT IN THE FLOW MODEL =    30

 MAXIMUM STEPSIZE WHICH MEETS STABILITY CRITERION OF THE SINK & SOURCE TERM
 =  12.18    (WHEN MIN. R.F.=1)  AT K=  17, I=   1, J=  91

 MAXIMUM STEPSIZE WHICH MEETS STABILITY CRITERION OF THE DISPERSION TERM
 =  4.017    (WHEN MIN. R.F.=1)  AT K=  17, I=   1, J=  90
     1 CALLS TO GCG PACKAGE FOR TRANSPORT TIME STEP 503 IN FLOW TIME STEP   1 STRESS PERIOD   1
     8 TOTAL ITERATIONS
     1 CALLS TO GCG PACKAGE FOR TRANSPORT TIME STEP 503 IN FLOW TIME STEP   1 STRESS PERIOD   1
     8 TOTAL ITERATIONS
 
 SOLVING FOR HEAD 


     2 CALLS TO PCG ROUTINE FOR TIME STEP   1 IN STRESS PERIOD    1
     9 TOTAL ITERATIONS

 MAXIMUM HEAD CHANGE FOR EACH ITERATION (1 INDICATES THE FIRST INNER ITERATION):

    HEAD CHANGE    HEAD CHANGE    HEAD CHANGE    HEAD CHANGE    HEAD CHANGE 
   LAYER,ROW,COL  LAYER,ROW,COL  LAYER,ROW,COL  LAYER,ROW,COL  LAYER,ROW,COL
 ---------------------------------------------------------------------------
  1 -0.1368E-01  0 -0.4979E-02  0  0.4153E-02  0  0.9468E-02  0 -0.7847E-02
   ( 15,  1, 86)  (  5,  1, 48)  (  8,  1, 12)  (  8,  1, 51)  (  7,  1, 51)
  0  0.2383E-02  0 -0.1102E-02  0  0.6173E-03  1 -0.5876E-03
   ( 11,  1, 61)  ( 11,  1, 60)  ( 11,  1, 56)  ( 11,  1, 54)

 MAXIMUM RESIDUAL FOR EACH ITERATION (1 INDICATES THE FIRST INNER ITERATION):

    RESIDUAL       RESIDUAL       RESIDUAL       RESIDUAL       RESIDUAL    
   LAYER,ROW,COL  LAYER,ROW,COL  LAYER,ROW,COL  LAYER,ROW,COL  LAYER,ROW,COL
 ---------------------------------------------------------------------------
  1 -0.1347E+06  0  0.9520E+05  0  0.9446E+05  0  0.6496E+05  0   6106.    
   ( 21,  1, 89)  ( 19,  1, 89)  ( 19,  1, 89)  ( 19,  1, 89)  ( 17,  1, 87)
  0  -2750.      0  -2500.      0  -773.3      1  -670.2    
   ( 22,  1, 87)  ( 22,  1, 87)  ( 22,  1, 87)  ( 22,  1, 87)


 FLOW MODEL IS TRANSIENT
 FLOW MODEL CONTAINS CONSTANT-HEAD CELLS


 MAXIMUM STEPSIZE DURING WHICH ANY PARTICLE CANNOT MOVE MORE THAN ONE CELL
 =  13.16    (WHEN MIN. R.F.=1)  AT K=  17, I=   1, J=  90

 MAXIMUM STEPSIZE WHICH MEETS STABILITY CRITERION OF THE ADVECTION TERM
 (FOR PURE FINITE-DIFFERENCE OPTION, MIXELM=0) 
 =  7.977    (WHEN MIN. R.F.=1)  AT K=  16, I=   1, J=  90


 TOTAL NUMBER OF POINT SOURCES/SINKS PRESENT IN THE FLOW MODEL =    30

 MAXIMUM STEPSIZE WHICH MEETS STABILITY CRITERION OF THE SINK & SOURCE TERM
 =  12.10    (WHEN MIN. R.F.=1)  AT K=  17, I=   1, J=  91

 MAXIMUM STEPSIZE WHICH MEETS STABILITY CRITERION OF THE DISPERSION TERM
 =  4.352    (WHEN MIN. R.F.=1)  AT K=  17, I=   1, J=  90
     1 CALLS TO GCG PACKAGE FOR TRANSPORT TIME STEP 504 IN FLOW TIME STEP   1 STRESS PERIOD   1
    10 TOTAL ITERATIONS
     1 CALLS TO GCG PACKAGE FOR TRANSPORT TIME STEP 504 IN FLOW TIME STEP   1 STRESS PERIOD   1
     8 TOTAL ITERATIONS
 
 SOLVING FOR HEAD 


     2 CALLS TO PCG ROUTINE FOR TIME STEP   1 IN STRESS PERIOD    1
     9 TOTAL ITERATIONS

 MAXIMUM HEAD CHANGE FOR EACH ITERATION (1 INDICATES THE FIRST INNER ITERATION):

    HEAD CHANGE    HEAD CHANGE    HEAD CHANGE    HEAD CHANGE    HEAD CHANGE 
   LAYER,ROW,COL  LAYER,ROW,COL  LAYER,ROW,COL  LAYER,ROW,COL  LAYER,ROW,COL
 ---------------------------------------------------------------------------
  1  0.1360E-01  0 -0.4073E-02  0 -0.2903E-02  0  0.1402E-01  0 -0.1364E-01
   ( 15,  1, 86)  ( 17,  1, 89)  (  8,  1, 12)  ( 11,  1, 54)  ( 11,  1, 54)
  0  0.1326E-02  0 -0.1036E-02  0 -0.6388E-03  1  0.5180E-03
   ( 11,  1, 50)  ( 11,  1, 49)  ( 11,  1, 55)  ( 11,  1, 70)

 MAXIMUM RESIDUAL FOR EACH ITERATION (1 INDICATES THE FIRST INNER ITERATION):

    RESIDUAL       RESIDUAL       RESIDUAL       RESIDUAL       RESIDUAL    
   LAYER,ROW,COL  LAYER,ROW,COL  LAYER,ROW,COL  LAYER,ROW,COL  LAYER,ROW,COL
 ---------------------------------------------------------------------------
  1  0.1339E+06  0 -0.9442E+05  0 -0.9339E+05  0 -0.2845E+05  0  -5340.    
   ( 21,  1, 89)  ( 19,  1, 89)  ( 19,  1, 89)  ( 19,  1, 89)  ( 17,  1, 87)
  0   2791.      0   2237.      0   681.9      1   566.1    
   ( 22,  1, 87)  ( 22,  1, 87)  ( 22,  1, 87)  ( 22,  1, 87)


 FLOW MODEL IS TRANSIENT
 FLOW MODEL CONTAINS CONSTANT-HEAD CELLS


 MAXIMUM STEPSIZE DURING WHICH ANY PARTICLE CANNOT MOVE MORE THAN ONE CELL
 =  12.83    (WHEN MIN. R.F.=1)  AT K=  17, I=   1, J=  90

 MAXIMUM STEPSIZE WHICH MEETS STABILITY CRITERION OF THE ADVECTION TERM
 (FOR PURE FINITE-DIFFERENCE OPTION, MIXELM=0) 
 =  8.026    (WHEN MIN. R.F.=1)  AT K=  16, I=   1, J=  90


 TOTAL NUMBER OF POINT SOURCES/SINKS PRESENT IN THE FLOW MODEL =    30

 MAXIMUM STEPSIZE WHICH MEETS STABILITY CRITERION OF THE SINK & SOURCE TERM
 =  12.18    (WHEN MIN. R.F.=1)  AT K=  17, I=   1, J=  91

 MAXIMUM STEPSIZE WHICH MEETS STABILITY CRITERION OF THE DISPERSION TERM
 =  4.022    (WHEN MIN. R.F.=1)  AT K=  17, I=   1, J=  90
     1 CALLS TO GCG PACKAGE FOR TRANSPORT TIME STEP 505 IN FLOW TIME STEP   1 STRESS PERIOD   1
     8 TOTAL ITERATIONS
  MAXIMUM CONCENTRATION CHANGES FOR EACH ITERATION:
  MAX. CHANGE LAYER,ROW,COL MAX. CHANGE LAYER,ROW,COL MAX. CHANGE LAYER,ROW,COL MAX. CHANGE LAYER,ROW,COL MAX. CHANGE LAYER,ROW,COL
 ------------------------------------------------------------------------------------------------------------------------------------
   0.5278E-01 ( 20,  1, 87)  0.4284E-02 ( 19,  1, 89)  0.2103E-02 ( 17,  1, 86)  0.4696E-03 ( 20,  1, 89)  0.9197E-04 ( 16,  1, 89)
   0.2024E-04 ( 20,  1, 89)  0.2004E-04 ( 16,  1, 90)  0.7633E-06 ( 17,  1, 90)
     1 CALLS TO GCG PACKAGE FOR TRANSPORT TIME STEP 505 IN FLOW TIME STEP   1 STRESS PERIOD   1
     8 TOTAL ITERATIONS
  MAXIMUM CONCENTRATION CHANGES FOR EACH ITERATION:
  MAX. CHANGE LAYER,ROW,COL MAX. CHANGE LAYER,ROW,COL MAX. CHANGE LAYER,ROW,COL MAX. CHANGE LAYER,ROW,COL MAX. CHANGE LAYER,ROW,COL
 ------------------------------------------------------------------------------------------------------------------------------------
   0.6014E-01 ( 20,  1, 87)  0.5018E-02 ( 19,  1, 89)  0.2040E-02 ( 18,  1, 86)  0.4065E-03 ( 23,  1, 87)  0.1157E-03 ( 16,  1, 89)
   0.2318E-04 ( 23,  1, 87)  0.1764E-04 ( 17,  1, 90)  0.8503E-06 ( 17,  1, 90)
 
 SOLVING FOR HEAD 


     2 CALLS TO PCG ROUTINE FOR TIME STEP   1 IN STRESS PERIOD    1
     9 TOTAL ITERATIONS

 MAXIMUM HEAD CHANGE FOR EACH ITERATION (1 INDICATES THE FIRST INNER ITERATION):

    HEAD CHANGE    HEAD CHANGE    HEAD CHANGE    HEAD CHANGE    HEAD CHANGE 
   LAYER,ROW,COL  LAYER,ROW,COL  LAYER,ROW,COL  LAYER,ROW,COL  LAYER,ROW,COL
 ---------------------------------------------------------------------------
  1 -0.1331E-01  0  0.3651E-02  0  0.2327E-02  0  0.8492E-02  0 -0.1035E-01
   ( 15,  1, 86)  ( 17,  1, 89)  (  8,  1, 12)  ( 11,  1, 49)  ( 11,  1, 49)
  0  0.2413E-02  0  0.1289E-02  0  0.7252E-03  1 -0.4524E-03
   ( 11,  1, 49)  ( 11,  1, 63)  ( 11,  1, 54)  ( 11,  1, 62)

 MAXIMUM RESIDUAL FOR EACH ITERATION (1 INDICATES THE FIRST INNER ITERATION):

    RESIDUAL       RESIDUAL       RESIDUAL       RESIDUAL       RESIDUAL    
   LAYER,ROW,COL  LAYER,ROW,COL  LAYER,ROW,COL  LAYER,ROW,COL  LAYER,ROW,COL
 ---------------------------------------------------------------------------
  1 -0.1315E+06  0  0.9258E+05  0  0.9093E+05  0  0.1937E+05  0   4890.    
   ( 21,  1, 89)  ( 19,  1, 89)  ( 19,  1, 89)  ( 19,  1, 89)  ( 17,  1, 87)
  0  -2796.      0  -2227.      0  -773.6      1  -657.1    
   ( 22,  1, 87)  ( 22,  1, 87)  ( 22,  1, 87)  ( 22,  1, 87)


 FLOW MODEL IS TRANSIENT
 FLOW MODEL CONTAINS CONSTANT-HEAD CELLS


 MAXIMUM STEPSIZE DURING WHICH ANY PARTICLE CANNOT MOVE MORE THAN ONE CELL
 =  13.22    (WHEN MIN. R.F.=1)  AT K=  17, I=   1, J=  90

 MAXIMUM STEPSIZE WHICH MEETS STABILITY CRITERION OF THE ADVECTION TERM
 (FOR PURE FINITE-DIFFERENCE OPTION, MIXELM=0) 
 =  8.002    (WHEN MIN. R.F.=1)  AT K=  16, I=   1, J=  90


 TOTAL NUMBER OF POINT SOURCES/SINKS PRESENT IN THE FLOW MODEL =    30

 MAXIMUM STEPSIZE WHICH MEETS STABILITY CRITERION OF THE SINK & SOURCE TERM
 =  12.17    (WHEN MIN. R.F.=1)  AT K=  17, I=   1, J=  91

 MAXIMUM STEPSIZE WHICH MEETS STABILITY CRITERION OF THE DISPERSION TERM
 =  4.372    (WHEN MIN. R.F.=1)  AT K=  17, I=   1, J=  90
     1 CALLS TO GCG PACKAGE FOR TRANSPORT TIME STEP 506 IN FLOW TIME STEP   1 STRESS PERIOD   1
     7 TOTAL ITERATIONS
     1 CALLS TO GCG PACKAGE FOR TRANSPORT TIME STEP 506 IN FLOW TIME STEP   1 STRESS PERIOD   1
     8 TOTAL ITERATIONS
 
 SOLVING FOR HEAD 


     2 CALLS TO PCG ROUTINE FOR TIME STEP   1 IN STRESS PERIOD    1
     8 TOTAL ITERATIONS

 MAXIMUM HEAD CHANGE FOR EACH ITERATION (1 INDICATES THE FIRST INNER ITERATION):

    HEAD CHANGE    HEAD CHANGE    HEAD CHANGE    HEAD CHANGE    HEAD CHANGE 
   LAYER,ROW,COL  LAYER,ROW,COL  LAYER,ROW,COL  LAYER,ROW,COL  LAYER,ROW,COL
 ---------------------------------------------------------------------------
  1  0.1347E-01  0 -0.3674E-02  0 -0.2313E-02  0 -0.8273E-02  0  0.8298E-02
   ( 15,  1, 86)  ( 17,  1, 89)  (  7,  1, 12)  (  9,  1, 46)  (  7,  1, 46)
  0 -0.1815E-02  0  0.9975E-03  1 -0.8642E-03
   ( 11,  1, 62)  ( 11,  1, 62)  ( 11,  1, 61)

 MAXIMUM RESIDUAL FOR EACH ITERATION (1 INDICATES THE FIRST INNER ITERATION):

    RESIDUAL       RESIDUAL       RESIDUAL       RESIDUAL       RESIDUAL    
   LAYER,ROW,COL  LAYER,ROW,COL  LAYER,ROW,COL  LAYER,ROW,COL  LAYER,ROW,COL
 ---------------------------------------------------------------------------
  1  0.1317E+06  0 -0.9158E+05  0 -0.9005E+05  0 -0.3968E+05  0  -5988.    
   ( 21,  1, 89)  ( 19,  1, 89)  ( 19,  1, 89)  ( 19,  1, 89)  ( 17,  1, 87)
  0   2914.      0   2553.      1   2076.    
   ( 22,  1, 87)  ( 22,  1, 87)  ( 22,  1, 87)


 FLOW MODEL IS TRANSIENT
 FLOW MODEL CONTAINS CONSTANT-HEAD CELLS


 MAXIMUM STEPSIZE DURING WHICH ANY PARTICLE CANNOT MOVE MORE THAN ONE CELL
 =  12.85    (WHEN MIN. R.F.=1)  AT K=  17, I=   1, J=  90

 MAXIMUM STEPSIZE WHICH MEETS STABILITY CRITERION OF THE ADVECTION TERM
 (FOR PURE FINITE-DIFFERENCE OPTION, MIXELM=0) 
 =  8.027    (WHEN MIN. R.F.=1)  AT K=  16, I=   1, J=  90


 TOTAL NUMBER OF POINT SOURCES/SINKS PRESENT IN THE FLOW MODEL =    30

 MAXIMUM STEPSIZE WHICH MEETS STABILITY CRITERION OF THE SINK & SOURCE TERM
 =  12.20    (WHEN MIN. R.F.=1)  AT K=  17, I=   1, J=  91

 MAXIMUM STEPSIZE WHICH MEETS STABILITY CRITERION OF THE DISPERSION TERM
 =  4.032    (WHEN MIN. R.F.=1)  AT K=  17, I=   1, J=  90
     1 CALLS TO GCG PACKAGE FOR TRANSPORT TIME STEP 507 IN FLOW TIME STEP   1 STRESS PERIOD   1
     8 TOTAL ITERATIONS
     1 CALLS TO GCG PACKAGE FOR TRANSPORT TIME STEP 507 IN FLOW TIME STEP   1 STRESS PERIOD   1
     8 TOTAL ITERATIONS
 
 SOLVING FOR HEAD 


     2 CALLS TO PCG ROUTINE FOR TIME STEP   1 IN STRESS PERIOD    1
     8 TOTAL ITERATIONS

 MAXIMUM HEAD CHANGE FOR EACH ITERATION (1 INDICATES THE FIRST INNER ITERATION):

    HEAD CHANGE    HEAD CHANGE    HEAD CHANGE    HEAD CHANGE    HEAD CHANGE 
   LAYER,ROW,COL  LAYER,ROW,COL  LAYER,ROW,COL  LAYER,ROW,COL  LAYER,ROW,COL
 ---------------------------------------------------------------------------
  1 -0.1366E-01  0 -0.8149E-02  0  0.3655E-02  0  0.1621E-01  0 -0.1291E-01
   ( 15,  1, 86)  ( 11,  1, 61)  (  8,  1, 12)  ( 11,  1, 61)  ( 11,  1, 60)
  0  0.2320E-02  0 -0.9273E-03  1  0.6476E-03
   ( 11,  1, 68)  ( 11,  1, 68)  ( 11,  1, 64)

 MAXIMUM RESIDUAL FOR EACH ITERATION (1 INDICATES THE FIRST INNER ITERATION):

    RESIDUAL       RESIDUAL       RESIDUAL       RESIDUAL       RESIDUAL    
   LAYER,ROW,COL  LAYER,ROW,COL  LAYER,ROW,COL  LAYER,ROW,COL  LAYER,ROW,COL
 ---------------------------------------------------------------------------
  1 -0.1363E+06  0  0.9718E+05  0  0.9629E+05  0  0.6472E+05  0   5563.    
   ( 21,  1, 89)  ( 19,  1, 89)  ( 19,  1, 89)  ( 19,  1, 89)  ( 17,  1, 87)
  0  -2792.      0  -2564.      1  -1772.    
   ( 17,  1, 88)  ( 22,  1, 87)  ( 22,  1, 87)


 FLOW MODEL IS TRANSIENT
 FLOW MODEL CONTAINS CONSTANT-HEAD CELLS


 MAXIMUM STEPSIZE DURING WHICH ANY PARTICLE CANNOT MOVE MORE THAN ONE CELL
 =  13.15    (WHEN MIN. R.F.=1)  AT K=  17, I=   1, J=  90

 MAXIMUM STEPSIZE WHICH MEETS STABILITY CRITERION OF THE ADVECTION TERM
 (FOR PURE FINITE-DIFFERENCE OPTION, MIXELM=0) 
 =  7.975    (WHEN MIN. R.F.=1)  AT K=  16, I=   1, J=  90


 TOTAL NUMBER OF POINT SOURCES/SINKS PRESENT IN THE FLOW MODEL =    30

 MAXIMUM STEPSIZE WHICH MEETS STABILITY CRITERION OF THE SINK & SOURCE TERM
 =  12.09    (WHEN MIN. R.F.=1)  AT K=  17, I=   1, J=  91

 MAXIMUM STEPSIZE WHICH MEETS STABILITY CRITERION OF THE DISPERSION TERM
 =  4.338    (WHEN MIN. R.F.=1)  AT K=  17, I=   1, J=  90
     1 CALLS TO GCG PACKAGE FOR TRANSPORT TIME STEP 508 IN FLOW TIME STEP   1 STRESS PERIOD   1
     8 TOTAL ITERATIONS
     1 CALLS TO GCG PACKAGE FOR TRANSPORT TIME STEP 508 IN FLOW TIME STEP   1 STRESS PERIOD   1
     8 TOTAL ITERATIONS
 
 SOLVING FOR HEAD 


     2 CALLS TO PCG ROUTINE FOR TIME STEP   1 IN STRESS PERIOD    1
    10 TOTAL ITERATIONS

 MAXIMUM HEAD CHANGE FOR EACH ITERATION (1 INDICATES THE FIRST INNER ITERATION):

    HEAD CHANGE    HEAD CHANGE    HEAD CHANGE    HEAD CHANGE    HEAD CHANGE 
   LAYER,ROW,COL  LAYER,ROW,COL  LAYER,ROW,COL  LAYER,ROW,COL  LAYER,ROW,COL
 ---------------------------------------------------------------------------
  1  0.1384E-01  0  0.7955E-02  0 -0.4128E-02  0  0.8779E-02  0  0.6214E-02
   ( 15,  1, 86)  (  7,  1, 40)  (  7,  1, 12)  ( 11,  1, 35)  ( 11,  1, 67)
  0 -0.6653E-02  0  0.1442E-02  0 -0.1044E-02  0  0.5412E-03  1  0.4185E-03
   ( 11,  1, 58)  ( 11,  1, 58)  ( 11,  1, 62)  ( 11,  1, 62)  ( 11,  1, 70)

 MAXIMUM RESIDUAL FOR EACH ITERATION (1 INDICATES THE FIRST INNER ITERATION):

    RESIDUAL       RESIDUAL       RESIDUAL       RESIDUAL       RESIDUAL    
   LAYER,ROW,COL  LAYER,ROW,COL  LAYER,ROW,COL  LAYER,ROW,COL  LAYER,ROW,COL
 ---------------------------------------------------------------------------
  1  0.1354E+06  0 -0.9649E+05  0 -0.9571E+05  0 -0.7979E+05  0   6896.    
   ( 21,  1, 89)  ( 19,  1, 89)  ( 19,  1, 89)  ( 19,  1, 89)  ( 17,  1, 88)
  0   3262.      0   2537.      0   1790.      0   390.6      1  -336.2    
   ( 17,  1, 88)  ( 22,  1, 87)  ( 22,  1, 87)  ( 22,  1, 87)  ( 18,  1, 90)


 FLOW MODEL IS TRANSIENT
 FLOW MODEL CONTAINS CONSTANT-HEAD CELLS


 MAXIMUM STEPSIZE DURING WHICH ANY PARTICLE CANNOT MOVE MORE THAN ONE CELL
 =  12.86    (WHEN MIN. R.F.=1)  AT K=  17, I=   1, J=  90

 MAXIMUM STEPSIZE WHICH MEETS STABILITY CRITERION OF THE ADVECTION TERM
 (FOR PURE FINITE-DIFFERENCE OPTION, MIXELM=0) 
 =  8.041    (WHEN MIN. R.F.=1)  AT K=  16, I=   1, J=  90


 TOTAL NUMBER OF POINT SOURCES/SINKS PRESENT IN THE FLOW MODEL =    30

 MAXIMUM STEPSIZE WHICH MEETS STABILITY CRITERION OF THE SINK & SOURCE TERM
 =  12.20    (WHEN MIN. R.F.=1)  AT K=  17, I=   1, J=  91

 MAXIMUM STEPSIZE WHICH MEETS STABILITY CRITERION OF THE DISPERSION TERM
 =  4.030    (WHEN MIN. R.F.=1)  AT K=  17, I=   1, J=  90
     1 CALLS TO GCG PACKAGE FOR TRANSPORT TIME STEP 509 IN FLOW TIME STEP   1 STRESS PERIOD   1
     8 TOTAL ITERATIONS
     1 CALLS TO GCG PACKAGE FOR TRANSPORT TIME STEP 509 IN FLOW TIME STEP   1 STRESS PERIOD   1
     8 TOTAL ITERATIONS
 
 SOLVING FOR HEAD 


     2 CALLS TO PCG ROUTINE FOR TIME STEP   1 IN STRESS PERIOD    1
     9 TOTAL ITERATIONS

 MAXIMUM HEAD CHANGE FOR EACH ITERATION (1 INDICATES THE FIRST INNER ITERATION):

    HEAD CHANGE    HEAD CHANGE    HEAD CHANGE    HEAD CHANGE    HEAD CHANGE 
   LAYER,ROW,COL  LAYER,ROW,COL  LAYER,ROW,COL  LAYER,ROW,COL  LAYER,ROW,COL
 ---------------------------------------------------------------------------
  1 -0.1336E-01  0  0.3807E-02  0  0.2401E-02  0 -0.5885E-02  0 -0.7488E-02
   ( 15,  1, 86)  ( 17,  1, 89)  (  8,  1, 12)  ( 11,  1, 70)  ( 11,  1, 62)
  0  0.2660E-02  0  0.1307E-02  0  0.6269E-03  1 -0.5571E-03
   ( 11,  1, 61)  ( 11,  1, 66)  ( 11,  1, 57)  ( 11,  1, 67)

 MAXIMUM RESIDUAL FOR EACH ITERATION (1 INDICATES THE FIRST INNER ITERATION):

    RESIDUAL       RESIDUAL       RESIDUAL       RESIDUAL       RESIDUAL    
   LAYER,ROW,COL  LAYER,ROW,COL  LAYER,ROW,COL  LAYER,ROW,COL  LAYER,ROW,COL
 ---------------------------------------------------------------------------
  1 -0.1314E+06  0  0.9268E+05  0  0.9132E+05  0  0.1353E+05  0  -3910.    
   ( 21,  1, 89)  ( 19,  1, 89)  ( 19,  1, 89)  ( 17,  1, 87)  ( 17,  1, 88)
  0  -2819.      0  -2062.      0  -702.1      1  -605.6    
   ( 22,  1, 87)  ( 22,  1, 87)  ( 22,  1, 87)  ( 22,  1, 87)


 FLOW MODEL IS TRANSIENT
 FLOW MODEL CONTAINS CONSTANT-HEAD CELLS


 MAXIMUM STEPSIZE DURING WHICH ANY PARTICLE CANNOT MOVE MORE THAN ONE CELL
 =  13.25    (WHEN MIN. R.F.=1)  AT K=  17, I=   1, J=  90

 MAXIMUM STEPSIZE WHICH MEETS STABILITY CRITERION OF THE ADVECTION TERM
 (FOR PURE FINITE-DIFFERENCE OPTION, MIXELM=0) 
 =  8.013    (WHEN MIN. R.F.=1)  AT K=  16, I=   1, J=  90


 TOTAL NUMBER OF POINT SOURCES/SINKS PRESENT IN THE FLOW MODEL =    30

 MAXIMUM STEPSIZE WHICH MEETS STABILITY CRITERION OF THE SINK & SOURCE TERM
 =  12.19    (WHEN MIN. R.F.=1)  AT K=  17, I=   1, J=  91

 MAXIMUM STEPSIZE WHICH MEETS STABILITY CRITERION OF THE DISPERSION TERM
 =  4.385    (WHEN MIN. R.F.=1)  AT K=  17, I=   1, J=  90
     1 CALLS TO GCG PACKAGE FOR TRANSPORT TIME STEP 510 IN FLOW TIME STEP   1 STRESS PERIOD   1
     9 TOTAL ITERATIONS
  MAXIMUM CONCENTRATION CHANGES FOR EACH ITERATION:
  MAX. CHANGE LAYER,ROW,COL MAX. CHANGE LAYER,ROW,COL MAX. CHANGE LAYER,ROW,COL MAX. CHANGE LAYER,ROW,COL MAX. CHANGE LAYER,ROW,COL
 ------------------------------------------------------------------------------------------------------------------------------------
   0.4933E-01 ( 20,  1, 87)  0.3340E-02 ( 19,  1, 87)  0.2263E-02 ( 18,  1, 87)  0.2197E-03 ( 16,  1, 88)  0.1401E-03 ( 16,  1, 89)
   0.3154E-04 ( 16,  1, 90)  0.7490E-04 ( 21,  1, 78)  0.7917E-04 ( 21,  1, 78)  0.7151E-06 ( 16,  1, 89)
     1 CALLS TO GCG PACKAGE FOR TRANSPORT TIME STEP 510 IN FLOW TIME STEP   1 STRESS PERIOD   1
     8 TOTAL ITERATIONS
  MAXIMUM CONCENTRATION CHANGES FOR EACH ITERATION:
  MAX. CHANGE LAYER,ROW,COL MAX. CHANGE LAYER,ROW,COL MAX. CHANGE LAYER,ROW,COL MAX. CHANGE LAYER,ROW,COL MAX. CHANGE LAYER,ROW,COL
 ------------------------------------------------------------------------------------------------------------------------------------
   0.5539E-01 ( 20,  1, 87)  0.4039E-02 ( 19,  1, 87)  0.2363E-02 ( 18,  1, 87)  0.2601E-03 ( 18,  1, 87)  0.1370E-03 ( 16,  1, 89)
   0.3858E-04 ( 16,  1, 90)  0.5667E-05 ( 17,  1, 90)  0.6283E-06 ( 16,  1, 89)



 >>>>>>>>>>>>>>>>>>>>>>>>>>>>>>>>>>>>>>>>>>>>>>>>>>>>>>>FOR COMPONENT NO. 01<<<<<<<<<<<<<<<<<<<<<<<<<<<<<<<<<<<<<<<<<<<<<<<<<<<<<<<


                                            -------------------------------------------
                                                      TRANSPORT STEP NO.  510
                                            -------------------------------------------

 TOTAL ELAPSED TIME SINCE BEGINNING OF SIMULATION =   25500.00    D   
 .....................................................................

                     CUMMULATIVE MASS BUDGETS AT END OF TRANSPORT STEP  510, TIME STEP    1, STRESS PERIOD    1
                     ------------------------------------------------------------------------------------------

                                                             IN                           OUT
                                                      ----------------             ----------------
                               CONSTANT CONCENTRATION:    0.000000                    0.000000    
                                        CONSTANT HEAD:   0.1009161E+10              -0.1008958E+10
                                                WELLS:    0.000000                    0.000000    
                                             RECHARGE:    0.000000                    0.000000    
                               1ST/0TH ORDER REACTION:    0.000000                    0.000000    
                                MASS STORAGE (SOLUTE):   0.1410943E+09              -0.1412975E+09
                            ---------------------------------------------------------------------------
                                              [TOTAL]:   0.1150257E+10 KG           -0.1150257E+10 KG  

                                                          NET (IN - OUT):   -187.9007    
                                                   DISCREPANCY (PERCENT):  -0.1633554E-04



 >>>>>>>>>>>>>>>>>>>>>>>>>>>>>>>>>>>>>>>>>>>>>>>>>>>>>>>FOR COMPONENT NO. 02<<<<<<<<<<<<<<<<<<<<<<<<<<<<<<<<<<<<<<<<<<<<<<<<<<<<<<<


                                            -------------------------------------------
                                                      TRANSPORT STEP NO.  510
                                            -------------------------------------------

 TOTAL ELAPSED TIME SINCE BEGINNING OF SIMULATION =   25500.00    D   
 .....................................................................

                     CUMMULATIVE MASS BUDGETS AT END OF TRANSPORT STEP  510, TIME STEP    1, STRESS PERIOD    1
                     ------------------------------------------------------------------------------------------

                                                             IN                           OUT
                                                      ----------------             ----------------
                               CONSTANT CONCENTRATION:    0.000000                    0.000000    
                                        CONSTANT HEAD:    0.000000                  -0.1548507E+12
                                                WELLS:    0.000000                    0.000000    
                                             RECHARGE:    0.000000                    0.000000    
                               1ST/0TH ORDER REACTION:   0.4220250E+12                0.000000    
                                MASS STORAGE (SOLUTE):   0.4928041E+11              -0.3164547E+12
                            ---------------------------------------------------------------------------
                                              [TOTAL]:   0.4713061E+12 KG           -0.4713062E+12 KG  

                                                          NET (IN - OUT):   -54007.80    
                                                   DISCREPANCY (PERCENT):  -0.1145917E-04
 
 SOLVING FOR HEAD 


     2 CALLS TO PCG ROUTINE FOR TIME STEP   1 IN STRESS PERIOD    1
     9 TOTAL ITERATIONS

 MAXIMUM HEAD CHANGE FOR EACH ITERATION (1 INDICATES THE FIRST INNER ITERATION):

    HEAD CHANGE    HEAD CHANGE    HEAD CHANGE    HEAD CHANGE    HEAD CHANGE 
   LAYER,ROW,COL  LAYER,ROW,COL  LAYER,ROW,COL  LAYER,ROW,COL  LAYER,ROW,COL
 ---------------------------------------------------------------------------
  1  0.1324E-01  0 -0.3593E-02  0 -0.2480E-02  0  0.8841E-02  0 -0.8602E-02
   ( 15,  1, 86)  ( 17,  1, 89)  (  8,  1, 12)  (  7,  1, 47)  (  7,  1, 47)
  0  0.1627E-02  0 -0.1204E-02  0 -0.9071E-03  1  0.6491E-03
   ( 11,  1, 62)  ( 11,  1, 62)  ( 11,  1, 54)  ( 11,  1, 70)

 MAXIMUM RESIDUAL FOR EACH ITERATION (1 INDICATES THE FIRST INNER ITERATION):

    RESIDUAL       RESIDUAL       RESIDUAL       RESIDUAL       RESIDUAL    
   LAYER,ROW,COL  LAYER,ROW,COL  LAYER,ROW,COL  LAYER,ROW,COL  LAYER,ROW,COL
 ---------------------------------------------------------------------------
  1  0.1333E+06  0 -0.9330E+05  0 -0.9093E+05  0 -0.3391E+05  0  -6008.    
   ( 21,  1, 89)  ( 19,  1, 89)  ( 19,  1, 89)  ( 19,  1, 89)  ( 17,  1, 87)
  0   2901.      0   2491.      0   832.3      1   709.5    
   ( 22,  1, 87)  ( 22,  1, 87)  ( 22,  1, 87)  ( 22,  1, 87)


 FLOW MODEL IS TRANSIENT
 FLOW MODEL CONTAINS CONSTANT-HEAD CELLS


 MAXIMUM STEPSIZE DURING WHICH ANY PARTICLE CANNOT MOVE MORE THAN ONE CELL
 =  12.87    (WHEN MIN. R.F.=1)  AT K=  17, I=   1, J=  90

 MAXIMUM STEPSIZE WHICH MEETS STABILITY CRITERION OF THE ADVECTION TERM
 (FOR PURE FINITE-DIFFERENCE OPTION, MIXELM=0) 
 =  8.036    (WHEN MIN. R.F.=1)  AT K=  16, I=   1, J=  90


 TOTAL NUMBER OF POINT SOURCES/SINKS PRESENT IN THE FLOW MODEL =    30

 MAXIMUM STEPSIZE WHICH MEETS STABILITY CRITERION OF THE SINK & SOURCE TERM
 =  12.20    (WHEN MIN. R.F.=1)  AT K=  17, I=   1, J=  91

 MAXIMUM STEPSIZE WHICH MEETS STABILITY CRITERION OF THE DISPERSION TERM
 =  4.036    (WHEN MIN. R.F.=1)  AT K=  17, I=   1, J=  90
     1 CALLS TO GCG PACKAGE FOR TRANSPORT TIME STEP 511 IN FLOW TIME STEP   1 STRESS PERIOD   1
     8 TOTAL ITERATIONS
     1 CALLS TO GCG PACKAGE FOR TRANSPORT TIME STEP 511 IN FLOW TIME STEP   1 STRESS PERIOD   1
     8 TOTAL ITERATIONS
 
 SOLVING FOR HEAD 


     2 CALLS TO PCG ROUTINE FOR TIME STEP   1 IN STRESS PERIOD    1
     8 TOTAL ITERATIONS

 MAXIMUM HEAD CHANGE FOR EACH ITERATION (1 INDICATES THE FIRST INNER ITERATION):

    HEAD CHANGE    HEAD CHANGE    HEAD CHANGE    HEAD CHANGE    HEAD CHANGE 
   LAYER,ROW,COL  LAYER,ROW,COL  LAYER,ROW,COL  LAYER,ROW,COL  LAYER,ROW,COL
 ---------------------------------------------------------------------------
  1 -0.1346E-01  0  0.3700E-02  0  0.2799E-02  0 -0.1189E-01  0  0.1211E-01
   ( 15,  1, 86)  ( 17,  1, 89)  (  8,  1, 12)  ( 11,  1, 51)  ( 11,  1, 51)
  0 -0.1950E-02  0  0.8298E-03  1  0.5844E-03
   ( 11,  1, 56)  ( 11,  1, 56)  ( 11,  1, 62)

 MAXIMUM RESIDUAL FOR EACH ITERATION (1 INDICATES THE FIRST INNER ITERATION):

    RESIDUAL       RESIDUAL       RESIDUAL       RESIDUAL       RESIDUAL    
   LAYER,ROW,COL  LAYER,ROW,COL  LAYER,ROW,COL  LAYER,ROW,COL  LAYER,ROW,COL
 ---------------------------------------------------------------------------
  1 -0.1343E+06  0  0.9446E+05  0  0.9338E+05  0  0.2939E+05  0   5486.    
   ( 21,  1, 89)  ( 19,  1, 89)  ( 19,  1, 89)  ( 19,  1, 89)  ( 17,  1, 87)
  0  -2825.      0  -2430.      1  -2083.    
   ( 22,  1, 87)  ( 22,  1, 87)  ( 22,  1, 87)


 FLOW MODEL IS TRANSIENT
 FLOW MODEL CONTAINS CONSTANT-HEAD CELLS


 MAXIMUM STEPSIZE DURING WHICH ANY PARTICLE CANNOT MOVE MORE THAN ONE CELL
 =  13.22    (WHEN MIN. R.F.=1)  AT K=  17, I=   1, J=  90

 MAXIMUM STEPSIZE WHICH MEETS STABILITY CRITERION OF THE ADVECTION TERM
 (FOR PURE FINITE-DIFFERENCE OPTION, MIXELM=0) 
 =  8.006    (WHEN MIN. R.F.=1)  AT K=  16, I=   1, J=  90


 TOTAL NUMBER OF POINT SOURCES/SINKS PRESENT IN THE FLOW MODEL =    30

 MAXIMUM STEPSIZE WHICH MEETS STABILITY CRITERION OF THE SINK & SOURCE TERM
 =  12.17    (WHEN MIN. R.F.=1)  AT K=  17, I=   1, J=  91

 MAXIMUM STEPSIZE WHICH MEETS STABILITY CRITERION OF THE DISPERSION TERM
 =  4.362    (WHEN MIN. R.F.=1)  AT K=  17, I=   1, J=  90
     1 CALLS TO GCG PACKAGE FOR TRANSPORT TIME STEP 512 IN FLOW TIME STEP   1 STRESS PERIOD   1
     8 TOTAL ITERATIONS
     1 CALLS TO GCG PACKAGE FOR TRANSPORT TIME STEP 512 IN FLOW TIME STEP   1 STRESS PERIOD   1
     8 TOTAL ITERATIONS
 
 SOLVING FOR HEAD 


     2 CALLS TO PCG ROUTINE FOR TIME STEP   1 IN STRESS PERIOD    1
     9 TOTAL ITERATIONS

 MAXIMUM HEAD CHANGE FOR EACH ITERATION (1 INDICATES THE FIRST INNER ITERATION):

    HEAD CHANGE    HEAD CHANGE    HEAD CHANGE    HEAD CHANGE    HEAD CHANGE 
   LAYER,ROW,COL  LAYER,ROW,COL  LAYER,ROW,COL  LAYER,ROW,COL  LAYER,ROW,COL
 ---------------------------------------------------------------------------
  1  0.1387E-01  0  0.6199E-02  0 -0.3848E-02  0 -0.9328E-02  0  0.7177E-02
   ( 15,  1, 86)  (  7,  1, 43)  (  7,  1, 12)  (  6,  1, 44)  (  8,  1, 47)
  0  0.3157E-02  0 -0.1556E-02  0 -0.6360E-03  1  0.5639E-03
   ( 11,  1, 49)  ( 11,  1, 49)  ( 11,  1, 62)  ( 11,  1, 62)

 MAXIMUM RESIDUAL FOR EACH ITERATION (1 INDICATES THE FIRST INNER ITERATION):

    RESIDUAL       RESIDUAL       RESIDUAL       RESIDUAL       RESIDUAL    
   LAYER,ROW,COL  LAYER,ROW,COL  LAYER,ROW,COL  LAYER,ROW,COL  LAYER,ROW,COL
 ---------------------------------------------------------------------------
  1  0.1334E+06  0 -0.9468E+05  0 -0.9388E+05  0 -0.7054E+05  0  -5895.    
   ( 21,  1, 89)  ( 19,  1, 89)  ( 19,  1, 89)  ( 19,  1, 89)  ( 17,  1, 87)
  0   2789.      0   2621.      0   963.9      1   859.6    
   ( 22,  1, 87)  ( 22,  1, 87)  ( 22,  1, 87)  ( 22,  1, 87)


 FLOW MODEL IS TRANSIENT
 FLOW MODEL CONTAINS CONSTANT-HEAD CELLS


 MAXIMUM STEPSIZE DURING WHICH ANY PARTICLE CANNOT MOVE MORE THAN ONE CELL
 =  12.91    (WHEN MIN. R.F.=1)  AT K=  17, I=   1, J=  90

 MAXIMUM STEPSIZE WHICH MEETS STABILITY CRITERION OF THE ADVECTION TERM
 (FOR PURE FINITE-DIFFERENCE OPTION, MIXELM=0) 
 =  8.058    (WHEN MIN. R.F.=1)  AT K=  16, I=   1, J=  90


 TOTAL NUMBER OF POINT SOURCES/SINKS PRESENT IN THE FLOW MODEL =    30

 MAXIMUM STEPSIZE WHICH MEETS STABILITY CRITERION OF THE SINK & SOURCE TERM
 =  12.27    (WHEN MIN. R.F.=1)  AT K=  17, I=   1, J=  91

 MAXIMUM STEPSIZE WHICH MEETS STABILITY CRITERION OF THE DISPERSION TERM
 =  4.049    (WHEN MIN. R.F.=1)  AT K=  17, I=   1, J=  90
     1 CALLS TO GCG PACKAGE FOR TRANSPORT TIME STEP 513 IN FLOW TIME STEP   1 STRESS PERIOD   1
     8 TOTAL ITERATIONS
     1 CALLS TO GCG PACKAGE FOR TRANSPORT TIME STEP 513 IN FLOW TIME STEP   1 STRESS PERIOD   1
     8 TOTAL ITERATIONS
 
 SOLVING FOR HEAD 


     2 CALLS TO PCG ROUTINE FOR TIME STEP   1 IN STRESS PERIOD    1
    10 TOTAL ITERATIONS

 MAXIMUM HEAD CHANGE FOR EACH ITERATION (1 INDICATES THE FIRST INNER ITERATION):

    HEAD CHANGE    HEAD CHANGE    HEAD CHANGE    HEAD CHANGE    HEAD CHANGE 
   LAYER,ROW,COL  LAYER,ROW,COL  LAYER,ROW,COL  LAYER,ROW,COL  LAYER,ROW,COL
 ---------------------------------------------------------------------------
  1 -0.1363E-01  0  0.3993E-02  0  0.3336E-02  0  0.9335E-02  0 -0.1060E-01
   ( 15,  1, 86)  ( 17,  1, 89)  (  8,  1, 12)  ( 11,  1, 52)  ( 11,  1, 52)
  0  0.1888E-02  0  0.1081E-02  0  0.1003E-02  0 -0.5453E-03  1 -0.1658E-03
   ( 11,  1, 52)  ( 11,  1, 70)  ( 11,  1, 60)  ( 11,  1, 70)  ( 11,  1, 50)

 MAXIMUM RESIDUAL FOR EACH ITERATION (1 INDICATES THE FIRST INNER ITERATION):

    RESIDUAL       RESIDUAL       RESIDUAL       RESIDUAL       RESIDUAL    
   LAYER,ROW,COL  LAYER,ROW,COL  LAYER,ROW,COL  LAYER,ROW,COL  LAYER,ROW,COL
 ---------------------------------------------------------------------------
  1 -0.1351E+06  0  0.9579E+05  0  0.9487E+05  0  0.2262E+05  0   5104.    
   ( 21,  1, 89)  ( 19,  1, 89)  ( 19,  1, 89)  ( 19,  1, 89)  ( 17,  1, 87)
  0  -2876.      0  -2141.      0  -717.4      0   313.8      1   276.2    
   ( 22,  1, 87)  ( 22,  1, 87)  ( 22,  1, 87)  ( 19,  1, 90)  ( 18,  1, 90)


 FLOW MODEL IS TRANSIENT
 FLOW MODEL CONTAINS CONSTANT-HEAD CELLS


 MAXIMUM STEPSIZE DURING WHICH ANY PARTICLE CANNOT MOVE MORE THAN ONE CELL
 =  13.24    (WHEN MIN. R.F.=1)  AT K=  17, I=   1, J=  90

 MAXIMUM STEPSIZE WHICH MEETS STABILITY CRITERION OF THE ADVECTION TERM
 (FOR PURE FINITE-DIFFERENCE OPTION, MIXELM=0) 
 =  8.009    (WHEN MIN. R.F.=1)  AT K=  16, I=   1, J=  90


 TOTAL NUMBER OF POINT SOURCES/SINKS PRESENT IN THE FLOW MODEL =    30

 MAXIMUM STEPSIZE WHICH MEETS STABILITY CRITERION OF THE SINK & SOURCE TERM
 =  12.20    (WHEN MIN. R.F.=1)  AT K=  17, I=   1, J=  91

 MAXIMUM STEPSIZE WHICH MEETS STABILITY CRITERION OF THE DISPERSION TERM
 =  4.375    (WHEN MIN. R.F.=1)  AT K=  17, I=   1, J=  90
     1 CALLS TO GCG PACKAGE FOR TRANSPORT TIME STEP 514 IN FLOW TIME STEP   1 STRESS PERIOD   1
     9 TOTAL ITERATIONS
     1 CALLS TO GCG PACKAGE FOR TRANSPORT TIME STEP 514 IN FLOW TIME STEP   1 STRESS PERIOD   1
     8 TOTAL ITERATIONS
 
 SOLVING FOR HEAD 


     2 CALLS TO PCG ROUTINE FOR TIME STEP   1 IN STRESS PERIOD    1
     9 TOTAL ITERATIONS

 MAXIMUM HEAD CHANGE FOR EACH ITERATION (1 INDICATES THE FIRST INNER ITERATION):

    HEAD CHANGE    HEAD CHANGE    HEAD CHANGE    HEAD CHANGE    HEAD CHANGE 
   LAYER,ROW,COL  LAYER,ROW,COL  LAYER,ROW,COL  LAYER,ROW,COL  LAYER,ROW,COL
 ---------------------------------------------------------------------------
  1  0.1326E-01  0 -0.3580E-02  0  0.4960E-02  0 -0.5037E-02  0 -0.5825E-02
   ( 15,  1, 86)  ( 17,  1, 89)  (  8,  1, 12)  (  7,  1, 12)  ( 11,  1, 49)
  0  0.1932E-02  0 -0.1383E-02  0 -0.7853E-03  1  0.7310E-03
   ( 11,  1, 49)  ( 11,  1, 56)  ( 11,  1, 49)  ( 11,  1, 70)

 MAXIMUM RESIDUAL FOR EACH ITERATION (1 INDICATES THE FIRST INNER ITERATION):

    RESIDUAL       RESIDUAL       RESIDUAL       RESIDUAL       RESIDUAL    
   LAYER,ROW,COL  LAYER,ROW,COL  LAYER,ROW,COL  LAYER,ROW,COL  LAYER,ROW,COL
 ---------------------------------------------------------------------------
  1  0.1348E+06  0 -0.9470E+05  0 -0.7295E+05  0 -0.1414E+05  0   4415.    
   ( 21,  1, 89)  ( 19,  1, 89)  ( 19,  1, 89)  ( 20,  1, 89)  ( 18,  1, 89)
  0   2875.      0   2317.      0   792.7      1   661.9    
   ( 22,  1, 87)  ( 22,  1, 87)  ( 22,  1, 87)  ( 22,  1, 87)


 FLOW MODEL IS TRANSIENT
 FLOW MODEL CONTAINS CONSTANT-HEAD CELLS


 MAXIMUM STEPSIZE DURING WHICH ANY PARTICLE CANNOT MOVE MORE THAN ONE CELL
 =  12.85    (WHEN MIN. R.F.=1)  AT K=  17, I=   1, J=  90

 MAXIMUM STEPSIZE WHICH MEETS STABILITY CRITERION OF THE ADVECTION TERM
 (FOR PURE FINITE-DIFFERENCE OPTION, MIXELM=0) 
 =  8.032    (WHEN MIN. R.F.=1)  AT K=  16, I=   1, J=  90


 TOTAL NUMBER OF POINT SOURCES/SINKS PRESENT IN THE FLOW MODEL =    30

 MAXIMUM STEPSIZE WHICH MEETS STABILITY CRITERION OF THE SINK & SOURCE TERM
 =  12.20    (WHEN MIN. R.F.=1)  AT K=  17, I=   1, J=  91

 MAXIMUM STEPSIZE WHICH MEETS STABILITY CRITERION OF THE DISPERSION TERM
 =  4.027    (WHEN MIN. R.F.=1)  AT K=  17, I=   1, J=  90
     1 CALLS TO GCG PACKAGE FOR TRANSPORT TIME STEP 515 IN FLOW TIME STEP   1 STRESS PERIOD   1
     8 TOTAL ITERATIONS
  MAXIMUM CONCENTRATION CHANGES FOR EACH ITERATION:
  MAX. CHANGE LAYER,ROW,COL MAX. CHANGE LAYER,ROW,COL MAX. CHANGE LAYER,ROW,COL MAX. CHANGE LAYER,ROW,COL MAX. CHANGE LAYER,ROW,COL
 ------------------------------------------------------------------------------------------------------------------------------------
   0.5280E-01 ( 20,  1, 87)  0.4172E-02 ( 19,  1, 89)  0.2167E-02 ( 18,  1, 86)  0.4644E-03 ( 20,  1, 89)  0.9618E-04 ( 16,  1, 89)
   0.2015E-04 ( 20,  1, 89)  0.1764E-04 ( 16,  1, 90)  0.7592E-06 ( 17,  1, 90)
     1 CALLS TO GCG PACKAGE FOR TRANSPORT TIME STEP 515 IN FLOW TIME STEP   1 STRESS PERIOD   1
     8 TOTAL ITERATIONS
  MAXIMUM CONCENTRATION CHANGES FOR EACH ITERATION:
  MAX. CHANGE LAYER,ROW,COL MAX. CHANGE LAYER,ROW,COL MAX. CHANGE LAYER,ROW,COL MAX. CHANGE LAYER,ROW,COL MAX. CHANGE LAYER,ROW,COL
 ------------------------------------------------------------------------------------------------------------------------------------
   0.6021E-01 ( 20,  1, 87)  0.4868E-02 ( 19,  1, 89)  0.2115E-02 ( 18,  1, 86)  0.3954E-03 ( 23,  1, 87)  0.1134E-03 ( 16,  1, 89)
   0.2173E-04 ( 23,  1, 87)  0.1528E-04 ( 17,  1, 90)  0.8763E-06 ( 17,  1, 90)
 
 SOLVING FOR HEAD 


     2 CALLS TO PCG ROUTINE FOR TIME STEP   1 IN STRESS PERIOD    1
     8 TOTAL ITERATIONS

 MAXIMUM HEAD CHANGE FOR EACH ITERATION (1 INDICATES THE FIRST INNER ITERATION):

    HEAD CHANGE    HEAD CHANGE    HEAD CHANGE    HEAD CHANGE    HEAD CHANGE 
   LAYER,ROW,COL  LAYER,ROW,COL  LAYER,ROW,COL  LAYER,ROW,COL  LAYER,ROW,COL
 ---------------------------------------------------------------------------
  1 -0.1345E-01  0  0.3626E-02  0  0.3041E-02  0  0.1066E-01  0 -0.1125E-01
   ( 15,  1, 86)  ( 17,  1, 89)  (  8,  1, 12)  ( 11,  1, 58)  ( 11,  1, 58)
  0 -0.1882E-02  0 -0.8443E-03  1  0.6668E-03
   ( 11,  1, 70)  ( 11,  1, 49)  ( 11,  1, 49)

 MAXIMUM RESIDUAL FOR EACH ITERATION (1 INDICATES THE FIRST INNER ITERATION):

    RESIDUAL       RESIDUAL       RESIDUAL       RESIDUAL       RESIDUAL    
   LAYER,ROW,COL  LAYER,ROW,COL  LAYER,ROW,COL  LAYER,ROW,COL  LAYER,ROW,COL
 ---------------------------------------------------------------------------
  1 -0.1325E+06  0  0.9250E+05  0  0.9154E+05  0  0.2396E+05  0   5211.    
   ( 21,  1, 89)  ( 19,  1, 89)  ( 19,  1, 89)  ( 19,  1, 89)  ( 17,  1, 87)
  0  -2832.      0  -2548.      1  -2048.    
   ( 22,  1, 87)  ( 22,  1, 87)  ( 22,  1, 87)


 FLOW MODEL IS TRANSIENT
 FLOW MODEL CONTAINS CONSTANT-HEAD CELLS


 MAXIMUM STEPSIZE DURING WHICH ANY PARTICLE CANNOT MOVE MORE THAN ONE CELL
 =  13.22    (WHEN MIN. R.F.=1)  AT K=  17, I=   1, J=  90

 MAXIMUM STEPSIZE WHICH MEETS STABILITY CRITERION OF THE ADVECTION TERM
 (FOR PURE FINITE-DIFFERENCE OPTION, MIXELM=0) 
 =  8.007    (WHEN MIN. R.F.=1)  AT K=  16, I=   1, J=  90


 TOTAL NUMBER OF POINT SOURCES/SINKS PRESENT IN THE FLOW MODEL =    30

 MAXIMUM STEPSIZE WHICH MEETS STABILITY CRITERION OF THE SINK & SOURCE TERM
 =  12.17    (WHEN MIN. R.F.=1)  AT K=  17, I=   1, J=  91

 MAXIMUM STEPSIZE WHICH MEETS STABILITY CRITERION OF THE DISPERSION TERM
 =  4.359    (WHEN MIN. R.F.=1)  AT K=  17, I=   1, J=  90
     1 CALLS TO GCG PACKAGE FOR TRANSPORT TIME STEP 516 IN FLOW TIME STEP   1 STRESS PERIOD   1
     8 TOTAL ITERATIONS
     1 CALLS TO GCG PACKAGE FOR TRANSPORT TIME STEP 516 IN FLOW TIME STEP   1 STRESS PERIOD   1
     8 TOTAL ITERATIONS
 
 SOLVING FOR HEAD 


     2 CALLS TO PCG ROUTINE FOR TIME STEP   1 IN STRESS PERIOD    1
     9 TOTAL ITERATIONS

 MAXIMUM HEAD CHANGE FOR EACH ITERATION (1 INDICATES THE FIRST INNER ITERATION):

    HEAD CHANGE    HEAD CHANGE    HEAD CHANGE    HEAD CHANGE    HEAD CHANGE 
   LAYER,ROW,COL  LAYER,ROW,COL  LAYER,ROW,COL  LAYER,ROW,COL  LAYER,ROW,COL
 ---------------------------------------------------------------------------
  1  0.1379E-01  0  0.7599E-02  0 -0.3865E-02  0 -0.9741E-02  0 -0.6495E-02
   ( 15,  1, 86)  ( 11,  1, 49)  (  8,  1, 12)  ( 11,  1, 49)  (  8,  1, 51)
  0 -0.3696E-02  0  0.1296E-02  0 -0.8010E-03  1  0.6943E-03
   ( 11,  1, 58)  ( 11,  1, 58)  ( 11,  1, 64)  ( 11,  1, 64)

 MAXIMUM RESIDUAL FOR EACH ITERATION (1 INDICATES THE FIRST INNER ITERATION):

    RESIDUAL       RESIDUAL       RESIDUAL       RESIDUAL       RESIDUAL    
   LAYER,ROW,COL  LAYER,ROW,COL  LAYER,ROW,COL  LAYER,ROW,COL  LAYER,ROW,COL
 ---------------------------------------------------------------------------
  1  0.1324E+06  0 -0.9355E+05  0 -0.9272E+05  0 -0.7531E+05  0  -6147.    
   ( 21,  1, 89)  ( 19,  1, 89)  ( 19,  1, 89)  ( 19,  1, 89)  ( 17,  1, 87)
  0   2879.      0   2638.      0   857.5      1   749.8    
   ( 17,  1, 88)  ( 22,  1, 87)  ( 22,  1, 87)  ( 22,  1, 87)


 FLOW MODEL IS TRANSIENT
 FLOW MODEL CONTAINS CONSTANT-HEAD CELLS


 MAXIMUM STEPSIZE DURING WHICH ANY PARTICLE CANNOT MOVE MORE THAN ONE CELL
 =  12.92    (WHEN MIN. R.F.=1)  AT K=  17, I=   1, J=  90

 MAXIMUM STEPSIZE WHICH MEETS STABILITY CRITERION OF THE ADVECTION TERM
 (FOR PURE FINITE-DIFFERENCE OPTION, MIXELM=0) 
 =  8.061    (WHEN MIN. R.F.=1)  AT K=  16, I=   1, J=  90


 TOTAL NUMBER OF POINT SOURCES/SINKS PRESENT IN THE FLOW MODEL =    30

 MAXIMUM STEPSIZE WHICH MEETS STABILITY CRITERION OF THE SINK & SOURCE TERM
 =  12.29    (WHEN MIN. R.F.=1)  AT K=  17, I=   1, J=  91

 MAXIMUM STEPSIZE WHICH MEETS STABILITY CRITERION OF THE DISPERSION TERM
 =  4.053    (WHEN MIN. R.F.=1)  AT K=  17, I=   1, J=  90
     1 CALLS TO GCG PACKAGE FOR TRANSPORT TIME STEP 517 IN FLOW TIME STEP   1 STRESS PERIOD   1
     8 TOTAL ITERATIONS
     1 CALLS TO GCG PACKAGE FOR TRANSPORT TIME STEP 517 IN FLOW TIME STEP   1 STRESS PERIOD   1
     8 TOTAL ITERATIONS
 
 SOLVING FOR HEAD 


     2 CALLS TO PCG ROUTINE FOR TIME STEP   1 IN STRESS PERIOD    1
     8 TOTAL ITERATIONS

 MAXIMUM HEAD CHANGE FOR EACH ITERATION (1 INDICATES THE FIRST INNER ITERATION):

    HEAD CHANGE    HEAD CHANGE    HEAD CHANGE    HEAD CHANGE    HEAD CHANGE 
   LAYER,ROW,COL  LAYER,ROW,COL  LAYER,ROW,COL  LAYER,ROW,COL  LAYER,ROW,COL
 ---------------------------------------------------------------------------
  1 -0.1360E-01  0  0.3930E-02  0  0.3619E-02  0 -0.9000E-02  0 -0.1050E-01
   ( 15,  1, 86)  ( 17,  1, 89)  (  8,  1, 12)  ( 11,  1, 62)  ( 11,  1, 69)
  0  0.2383E-02  0 -0.7623E-03  1  0.6643E-03
   ( 11,  1, 69)  ( 11,  1, 64)  ( 11,  1, 64)

 MAXIMUM RESIDUAL FOR EACH ITERATION (1 INDICATES THE FIRST INNER ITERATION):

    RESIDUAL       RESIDUAL       RESIDUAL       RESIDUAL       RESIDUAL    
   LAYER,ROW,COL  LAYER,ROW,COL  LAYER,ROW,COL  LAYER,ROW,COL  LAYER,ROW,COL
 ---------------------------------------------------------------------------
  1 -0.1348E+06  0  0.9567E+05  0  0.9482E+05  0  0.1998E+05  0   4564.    
   ( 21,  1, 89)  ( 19,  1, 89)  ( 19,  1, 89)  ( 19,  1, 89)  ( 17,  1, 87)
  0  -2836.      0  -2529.      1  -2072.    
   ( 22,  1, 87)  ( 22,  1, 87)  ( 22,  1, 87)


 FLOW MODEL IS TRANSIENT
 FLOW MODEL CONTAINS CONSTANT-HEAD CELLS


 MAXIMUM STEPSIZE DURING WHICH ANY PARTICLE CANNOT MOVE MORE THAN ONE CELL
 =  13.25    (WHEN MIN. R.F.=1)  AT K=  17, I=   1, J=  90

 MAXIMUM STEPSIZE WHICH MEETS STABILITY CRITERION OF THE ADVECTION TERM
 (FOR PURE FINITE-DIFFERENCE OPTION, MIXELM=0) 
 =  8.016    (WHEN MIN. R.F.=1)  AT K=  16, I=   1, J=  90


 TOTAL NUMBER OF POINT SOURCES/SINKS PRESENT IN THE FLOW MODEL =    30

 MAXIMUM STEPSIZE WHICH MEETS STABILITY CRITERION OF THE SINK & SOURCE TERM
 =  12.21    (WHEN MIN. R.F.=1)  AT K=  17, I=   1, J=  91

 MAXIMUM STEPSIZE WHICH MEETS STABILITY CRITERION OF THE DISPERSION TERM
 =  4.376    (WHEN MIN. R.F.=1)  AT K=  17, I=   1, J=  90
     1 CALLS TO GCG PACKAGE FOR TRANSPORT TIME STEP 518 IN FLOW TIME STEP   1 STRESS PERIOD   1
    10 TOTAL ITERATIONS
     1 CALLS TO GCG PACKAGE FOR TRANSPORT TIME STEP 518 IN FLOW TIME STEP   1 STRESS PERIOD   1
     8 TOTAL ITERATIONS
 
 SOLVING FOR HEAD 


     2 CALLS TO PCG ROUTINE FOR TIME STEP   1 IN STRESS PERIOD    1
     9 TOTAL ITERATIONS

 MAXIMUM HEAD CHANGE FOR EACH ITERATION (1 INDICATES THE FIRST INNER ITERATION):

    HEAD CHANGE    HEAD CHANGE    HEAD CHANGE    HEAD CHANGE    HEAD CHANGE 
   LAYER,ROW,COL  LAYER,ROW,COL  LAYER,ROW,COL  LAYER,ROW,COL  LAYER,ROW,COL
 ---------------------------------------------------------------------------
  1  0.1365E-01  0  0.6455E-02  0 -0.3151E-02  0 -0.8642E-02  0  0.6416E-02
   ( 15,  1, 86)  ( 11,  1, 64)  (  7,  1, 12)  ( 11,  1, 64)  (  8,  1, 52)
  0  0.3121E-02  0 -0.1491E-02  0 -0.8507E-03  1  0.6248E-03
   ( 11,  1, 63)  ( 11,  1, 63)  ( 11,  1, 54)  ( 11,  1, 54)

 MAXIMUM RESIDUAL FOR EACH ITERATION (1 INDICATES THE FIRST INNER ITERATION):

    RESIDUAL       RESIDUAL       RESIDUAL       RESIDUAL       RESIDUAL    
   LAYER,ROW,COL  LAYER,ROW,COL  LAYER,ROW,COL  LAYER,ROW,COL  LAYER,ROW,COL
 ---------------------------------------------------------------------------
  1  0.1362E+06  0 -0.9680E+05  0 -0.9573E+05  0 -0.7684E+05  0  -6153.    
   ( 21,  1, 89)  ( 19,  1, 89)  ( 19,  1, 89)  ( 19,  1, 89)  ( 17,  1, 87)
  0   2845.      0   2583.      0   1003.      1   895.3    
   ( 17,  1, 88)  ( 22,  1, 87)  ( 22,  1, 87)  ( 22,  1, 87)


 FLOW MODEL IS TRANSIENT
 FLOW MODEL CONTAINS CONSTANT-HEAD CELLS


 MAXIMUM STEPSIZE DURING WHICH ANY PARTICLE CANNOT MOVE MORE THAN ONE CELL
 =  12.90    (WHEN MIN. R.F.=1)  AT K=  17, I=   1, J=  90

 MAXIMUM STEPSIZE WHICH MEETS STABILITY CRITERION OF THE ADVECTION TERM
 (FOR PURE FINITE-DIFFERENCE OPTION, MIXELM=0) 
 =  8.058    (WHEN MIN. R.F.=1)  AT K=  16, I=   1, J=  90


 TOTAL NUMBER OF POINT SOURCES/SINKS PRESENT IN THE FLOW MODEL =    30

 MAXIMUM STEPSIZE WHICH MEETS STABILITY CRITERION OF THE SINK & SOURCE TERM
 =  12.27    (WHEN MIN. R.F.=1)  AT K=  17, I=   1, J=  91

 MAXIMUM STEPSIZE WHICH MEETS STABILITY CRITERION OF THE DISPERSION TERM
 =  4.043    (WHEN MIN. R.F.=1)  AT K=  17, I=   1, J=  90
     1 CALLS TO GCG PACKAGE FOR TRANSPORT TIME STEP 519 IN FLOW TIME STEP   1 STRESS PERIOD   1
     8 TOTAL ITERATIONS
     1 CALLS TO GCG PACKAGE FOR TRANSPORT TIME STEP 519 IN FLOW TIME STEP   1 STRESS PERIOD   1
     8 TOTAL ITERATIONS
 
 SOLVING FOR HEAD 


     2 CALLS TO PCG ROUTINE FOR TIME STEP   1 IN STRESS PERIOD    1
     9 TOTAL ITERATIONS

 MAXIMUM HEAD CHANGE FOR EACH ITERATION (1 INDICATES THE FIRST INNER ITERATION):

    HEAD CHANGE    HEAD CHANGE    HEAD CHANGE    HEAD CHANGE    HEAD CHANGE 
   LAYER,ROW,COL  LAYER,ROW,COL  LAYER,ROW,COL  LAYER,ROW,COL  LAYER,ROW,COL
 ---------------------------------------------------------------------------
  1 -0.1364E-01  0  0.4049E-02  0  0.4323E-02  0 -0.1017E-01  0  0.1047E-01
   ( 15,  1, 86)  ( 17,  1, 89)  (  8,  1, 12)  ( 11,  1, 52)  ( 11,  1, 52)
  0  0.1652E-02  0  0.1431E-02  0  0.8376E-03  1 -0.4616E-03
   ( 11,  1, 68)  ( 11,  1, 70)  ( 11,  1, 64)  ( 11,  1, 64)

 MAXIMUM RESIDUAL FOR EACH ITERATION (1 INDICATES THE FIRST INNER ITERATION):

    RESIDUAL       RESIDUAL       RESIDUAL       RESIDUAL       RESIDUAL    
   LAYER,ROW,COL  LAYER,ROW,COL  LAYER,ROW,COL  LAYER,ROW,COL  LAYER,ROW,COL
 ---------------------------------------------------------------------------
  1 -0.1355E+06  0  0.9599E+05  0  0.9528E+05  0  0.2257E+05  0   5116.    
   ( 21,  1, 89)  ( 19,  1, 89)  ( 19,  1, 89)  ( 19,  1, 89)  ( 17,  1, 87)
  0  -2861.      0  -1856.      0  -680.5      1  -594.2    
   ( 22,  1, 87)  ( 22,  1, 87)  ( 22,  1, 87)  ( 22,  1, 87)


 FLOW MODEL IS TRANSIENT
 FLOW MODEL CONTAINS CONSTANT-HEAD CELLS


 MAXIMUM STEPSIZE DURING WHICH ANY PARTICLE CANNOT MOVE MORE THAN ONE CELL
 =  13.24    (WHEN MIN. R.F.=1)  AT K=  17, I=   1, J=  90

 MAXIMUM STEPSIZE WHICH MEETS STABILITY CRITERION OF THE ADVECTION TERM
 (FOR PURE FINITE-DIFFERENCE OPTION, MIXELM=0) 
 =  8.011    (WHEN MIN. R.F.=1)  AT K=  16, I=   1, J=  90


 TOTAL NUMBER OF POINT SOURCES/SINKS PRESENT IN THE FLOW MODEL =    30

 MAXIMUM STEPSIZE WHICH MEETS STABILITY CRITERION OF THE SINK & SOURCE TERM
 =  12.20    (WHEN MIN. R.F.=1)  AT K=  17, I=   1, J=  91

 MAXIMUM STEPSIZE WHICH MEETS STABILITY CRITERION OF THE DISPERSION TERM
 =  4.379    (WHEN MIN. R.F.=1)  AT K=  17, I=   1, J=  90
     1 CALLS TO GCG PACKAGE FOR TRANSPORT TIME STEP 520 IN FLOW TIME STEP   1 STRESS PERIOD   1
     9 TOTAL ITERATIONS
  MAXIMUM CONCENTRATION CHANGES FOR EACH ITERATION:
  MAX. CHANGE LAYER,ROW,COL MAX. CHANGE LAYER,ROW,COL MAX. CHANGE LAYER,ROW,COL MAX. CHANGE LAYER,ROW,COL MAX. CHANGE LAYER,ROW,COL
 ------------------------------------------------------------------------------------------------------------------------------------
   0.4921E-01 ( 20,  1, 87)  0.3341E-02 ( 19,  1, 87)  0.2251E-02 ( 18,  1, 87)  0.2184E-03 ( 16,  1, 88)  0.1403E-03 ( 17,  1, 89)
   0.3132E-04 ( 16,  1, 90)  0.9190E-04 ( 21,  1, 78)  0.9647E-04 ( 21,  1, 78)  0.6638E-06 ( 16,  1, 89)
     1 CALLS TO GCG PACKAGE FOR TRANSPORT TIME STEP 520 IN FLOW TIME STEP   1 STRESS PERIOD   1
     8 TOTAL ITERATIONS
  MAXIMUM CONCENTRATION CHANGES FOR EACH ITERATION:
  MAX. CHANGE LAYER,ROW,COL MAX. CHANGE LAYER,ROW,COL MAX. CHANGE LAYER,ROW,COL MAX. CHANGE LAYER,ROW,COL MAX. CHANGE LAYER,ROW,COL
 ------------------------------------------------------------------------------------------------------------------------------------
   0.5541E-01 ( 19,  1, 88)  0.4027E-02 ( 19,  1, 87)  0.2340E-02 ( 18,  1, 87)  0.2552E-03 ( 23,  1, 88)  0.1408E-03 ( 17,  1, 89)
   0.3786E-04 ( 16,  1, 90)  0.5533E-05 ( 17,  1, 90)  0.6267E-06 ( 16,  1, 89)



 >>>>>>>>>>>>>>>>>>>>>>>>>>>>>>>>>>>>>>>>>>>>>>>>>>>>>>>FOR COMPONENT NO. 01<<<<<<<<<<<<<<<<<<<<<<<<<<<<<<<<<<<<<<<<<<<<<<<<<<<<<<<


                                            -------------------------------------------
                                                      TRANSPORT STEP NO.  520
                                            -------------------------------------------

 TOTAL ELAPSED TIME SINCE BEGINNING OF SIMULATION =   26000.00    D   
 .....................................................................

                     CUMMULATIVE MASS BUDGETS AT END OF TRANSPORT STEP  520, TIME STEP    1, STRESS PERIOD    1
                     ------------------------------------------------------------------------------------------

                                                             IN                           OUT
                                                      ----------------             ----------------
                               CONSTANT CONCENTRATION:    0.000000                    0.000000    
                                        CONSTANT HEAD:   0.1028909E+10              -0.1028705E+10
                                                WELLS:    0.000000                    0.000000    
                                             RECHARGE:    0.000000                    0.000000    
                               1ST/0TH ORDER REACTION:    0.000000                    0.000000    
                                MASS STORAGE (SOLUTE):   0.1438589E+09              -0.1440628E+09
                            ---------------------------------------------------------------------------
                                              [TOTAL]:   0.1172769E+10 KG           -0.1172769E+10 KG  

                                                          NET (IN - OUT):   -193.4885    
                                                   DISCREPANCY (PERCENT):  -0.1649843E-04



 >>>>>>>>>>>>>>>>>>>>>>>>>>>>>>>>>>>>>>>>>>>>>>>>>>>>>>>FOR COMPONENT NO. 02<<<<<<<<<<<<<<<<<<<<<<<<<<<<<<<<<<<<<<<<<<<<<<<<<<<<<<<


                                            -------------------------------------------
                                                      TRANSPORT STEP NO.  520
                                            -------------------------------------------

 TOTAL ELAPSED TIME SINCE BEGINNING OF SIMULATION =   26000.00    D   
 .....................................................................

                     CUMMULATIVE MASS BUDGETS AT END OF TRANSPORT STEP  520, TIME STEP    1, STRESS PERIOD    1
                     ------------------------------------------------------------------------------------------

                                                             IN                           OUT
                                                      ----------------             ----------------
                               CONSTANT CONCENTRATION:    0.000000                    0.000000    
                                        CONSTANT HEAD:    0.000000                  -0.1600018E+12
                                                WELLS:    0.000000                    0.000000    
                                             RECHARGE:    0.000000                    0.000000    
                               1ST/0TH ORDER REACTION:   0.4303000E+12                0.000000    
                                MASS STORAGE (SOLUTE):   0.5131321E+11              -0.3216115E+12
                            ---------------------------------------------------------------------------
                                              [TOTAL]:   0.4816140E+12 KG           -0.4816140E+12 KG  

                                                          NET (IN - OUT):   -55991.99    
                                                   DISCREPANCY (PERCENT):  -0.1162591E-04
 
 SOLVING FOR HEAD 


     2 CALLS TO PCG ROUTINE FOR TIME STEP   1 IN STRESS PERIOD    1
     9 TOTAL ITERATIONS

 MAXIMUM HEAD CHANGE FOR EACH ITERATION (1 INDICATES THE FIRST INNER ITERATION):

    HEAD CHANGE    HEAD CHANGE    HEAD CHANGE    HEAD CHANGE    HEAD CHANGE 
   LAYER,ROW,COL  LAYER,ROW,COL  LAYER,ROW,COL  LAYER,ROW,COL  LAYER,ROW,COL
 ---------------------------------------------------------------------------
  1  0.1326E-01  0 -0.3698E-02  0 -0.6122E-02  0  0.4366E-02  0 -0.8629E-02
   ( 15,  1, 86)  ( 17,  1, 89)  ( 11,  1, 37)  (  6,  1, 12)  (  6,  1, 47)
  0  0.1771E-02  0 -0.1332E-02  0 -0.9372E-03  1  0.5698E-03
   ( 11,  1, 70)  ( 11,  1, 69)  ( 11,  1, 62)  ( 11,  1, 61)

 MAXIMUM RESIDUAL FOR EACH ITERATION (1 INDICATES THE FIRST INNER ITERATION):

    RESIDUAL       RESIDUAL       RESIDUAL       RESIDUAL       RESIDUAL    
   LAYER,ROW,COL  LAYER,ROW,COL  LAYER,ROW,COL  LAYER,ROW,COL  LAYER,ROW,COL
 ---------------------------------------------------------------------------
  1  0.1351E+06  0 -0.9540E+05  0 -0.6061E+05  0 -0.3799E+05  0  -6146.    
   ( 21,  1, 89)  ( 19,  1, 89)  ( 19,  1, 89)  ( 19,  1, 89)  ( 17,  1, 87)
  0   2869.      0   2299.      0   791.1      1   648.4    
   ( 22,  1, 87)  ( 22,  1, 87)  ( 22,  1, 87)  ( 22,  1, 87)


 FLOW MODEL IS TRANSIENT
 FLOW MODEL CONTAINS CONSTANT-HEAD CELLS


 MAXIMUM STEPSIZE DURING WHICH ANY PARTICLE CANNOT MOVE MORE THAN ONE CELL
 =  12.85    (WHEN MIN. R.F.=1)  AT K=  17, I=   1, J=  90

 MAXIMUM STEPSIZE WHICH MEETS STABILITY CRITERION OF THE ADVECTION TERM
 (FOR PURE FINITE-DIFFERENCE OPTION, MIXELM=0) 
 =  8.036    (WHEN MIN. R.F.=1)  AT K=  16, I=   1, J=  90


 TOTAL NUMBER OF POINT SOURCES/SINKS PRESENT IN THE FLOW MODEL =    30

 MAXIMUM STEPSIZE WHICH MEETS STABILITY CRITERION OF THE SINK & SOURCE TERM
 =  12.20    (WHEN MIN. R.F.=1)  AT K=  17, I=   1, J=  91

 MAXIMUM STEPSIZE WHICH MEETS STABILITY CRITERION OF THE DISPERSION TERM
 =  4.028    (WHEN MIN. R.F.=1)  AT K=  17, I=   1, J=  90
     1 CALLS TO GCG PACKAGE FOR TRANSPORT TIME STEP 521 IN FLOW TIME STEP   1 STRESS PERIOD   1
     8 TOTAL ITERATIONS
     1 CALLS TO GCG PACKAGE FOR TRANSPORT TIME STEP 521 IN FLOW TIME STEP   1 STRESS PERIOD   1
     8 TOTAL ITERATIONS
 
 SOLVING FOR HEAD 


     2 CALLS TO PCG ROUTINE FOR TIME STEP   1 IN STRESS PERIOD    1
     8 TOTAL ITERATIONS

 MAXIMUM HEAD CHANGE FOR EACH ITERATION (1 INDICATES THE FIRST INNER ITERATION):

    HEAD CHANGE    HEAD CHANGE    HEAD CHANGE    HEAD CHANGE    HEAD CHANGE 
   LAYER,ROW,COL  LAYER,ROW,COL  LAYER,ROW,COL  LAYER,ROW,COL  LAYER,ROW,COL
 ---------------------------------------------------------------------------
  1 -0.1351E-01  0  0.3706E-02  0  0.3608E-02  0 -0.8068E-02  0 -0.9302E-02
   ( 15,  1, 86)  ( 17,  1, 89)  (  8,  1, 12)  ( 11,  1, 49)  ( 11,  1, 70)
  0  0.2472E-02  0  0.9275E-03  1  0.6657E-03
   ( 11,  1, 68)  ( 11,  1, 54)  ( 11,  1, 63)

 MAXIMUM RESIDUAL FOR EACH ITERATION (1 INDICATES THE FIRST INNER ITERATION):

    RESIDUAL       RESIDUAL       RESIDUAL       RESIDUAL       RESIDUAL    
   LAYER,ROW,COL  LAYER,ROW,COL  LAYER,ROW,COL  LAYER,ROW,COL  LAYER,ROW,COL
 ---------------------------------------------------------------------------
  1 -0.1336E+06  0  0.9356E+05  0  0.9274E+05  0  0.1997E+05  0   4883.    
   ( 21,  1, 89)  ( 19,  1, 89)  ( 19,  1, 89)  ( 19,  1, 89)  ( 17,  1, 87)
  0  -2826.      0  -2473.      1  -2047.    
   ( 22,  1, 87)  ( 22,  1, 87)  ( 22,  1, 87)


 FLOW MODEL IS TRANSIENT
 FLOW MODEL CONTAINS CONSTANT-HEAD CELLS


 MAXIMUM STEPSIZE DURING WHICH ANY PARTICLE CANNOT MOVE MORE THAN ONE CELL
 =  13.23    (WHEN MIN. R.F.=1)  AT K=  17, I=   1, J=  90

 MAXIMUM STEPSIZE WHICH MEETS STABILITY CRITERION OF THE ADVECTION TERM
 (FOR PURE FINITE-DIFFERENCE OPTION, MIXELM=0) 
 =  8.011    (WHEN MIN. R.F.=1)  AT K=  16, I=   1, J=  90


 TOTAL NUMBER OF POINT SOURCES/SINKS PRESENT IN THE FLOW MODEL =    30

 MAXIMUM STEPSIZE WHICH MEETS STABILITY CRITERION OF THE SINK & SOURCE TERM
 =  12.18    (WHEN MIN. R.F.=1)  AT K=  17, I=   1, J=  91

 MAXIMUM STEPSIZE WHICH MEETS STABILITY CRITERION OF THE DISPERSION TERM
 =  4.369    (WHEN MIN. R.F.=1)  AT K=  17, I=   1, J=  90
     1 CALLS TO GCG PACKAGE FOR TRANSPORT TIME STEP 522 IN FLOW TIME STEP   1 STRESS PERIOD   1
     8 TOTAL ITERATIONS
     1 CALLS TO GCG PACKAGE FOR TRANSPORT TIME STEP 522 IN FLOW TIME STEP   1 STRESS PERIOD   1
     8 TOTAL ITERATIONS
 
 SOLVING FOR HEAD 


     2 CALLS TO PCG ROUTINE FOR TIME STEP   1 IN STRESS PERIOD    1
     9 TOTAL ITERATIONS

 MAXIMUM HEAD CHANGE FOR EACH ITERATION (1 INDICATES THE FIRST INNER ITERATION):

    HEAD CHANGE    HEAD CHANGE    HEAD CHANGE    HEAD CHANGE    HEAD CHANGE 
   LAYER,ROW,COL  LAYER,ROW,COL  LAYER,ROW,COL  LAYER,ROW,COL  LAYER,ROW,COL
 ---------------------------------------------------------------------------
  1  0.1379E-01  0  0.6244E-02  0 -0.3373E-02  0 -0.9856E-02  0  0.6971E-02
   ( 15,  1, 86)  ( 11,  1, 63)  (  8,  1, 12)  ( 11,  1, 63)  (  8,  1, 54)
  0 -0.3343E-02  0 -0.1221E-02  0 -0.8353E-03  1  0.6800E-03
   ( 11,  1, 69)  ( 11,  1, 63)  ( 11,  1, 50)  ( 11,  1, 50)

 MAXIMUM RESIDUAL FOR EACH ITERATION (1 INDICATES THE FIRST INNER ITERATION):

    RESIDUAL       RESIDUAL       RESIDUAL       RESIDUAL       RESIDUAL    
   LAYER,ROW,COL  LAYER,ROW,COL  LAYER,ROW,COL  LAYER,ROW,COL  LAYER,ROW,COL
 ---------------------------------------------------------------------------
  1  0.1334E+06  0 -0.9436E+05  0 -0.9343E+05  0 -0.7137E+05  0  -6296.    
   ( 21,  1, 89)  ( 19,  1, 89)  ( 19,  1, 89)  ( 19,  1, 89)  ( 17,  1, 87)
  0   2962.      0   2626.      0   1366.      1   1228.    
   ( 17,  1, 88)  ( 22,  1, 87)  ( 22,  1, 87)  ( 22,  1, 87)


 FLOW MODEL IS TRANSIENT
 FLOW MODEL CONTAINS CONSTANT-HEAD CELLS


 MAXIMUM STEPSIZE DURING WHICH ANY PARTICLE CANNOT MOVE MORE THAN ONE CELL
 =  12.91    (WHEN MIN. R.F.=1)  AT K=  17, I=   1, J=  90

 MAXIMUM STEPSIZE WHICH MEETS STABILITY CRITERION OF THE ADVECTION TERM
 (FOR PURE FINITE-DIFFERENCE OPTION, MIXELM=0) 
 =  8.061    (WHEN MIN. R.F.=1)  AT K=  16, I=   1, J=  90


 TOTAL NUMBER OF POINT SOURCES/SINKS PRESENT IN THE FLOW MODEL =    30

 MAXIMUM STEPSIZE WHICH MEETS STABILITY CRITERION OF THE SINK & SOURCE TERM
 =  12.28    (WHEN MIN. R.F.=1)  AT K=  17, I=   1, J=  91

 MAXIMUM STEPSIZE WHICH MEETS STABILITY CRITERION OF THE DISPERSION TERM
 =  4.050    (WHEN MIN. R.F.=1)  AT K=  17, I=   1, J=  90
     1 CALLS TO GCG PACKAGE FOR TRANSPORT TIME STEP 523 IN FLOW TIME STEP   1 STRESS PERIOD   1
     8 TOTAL ITERATIONS
     1 CALLS TO GCG PACKAGE FOR TRANSPORT TIME STEP 523 IN FLOW TIME STEP   1 STRESS PERIOD   1
     8 TOTAL ITERATIONS
 
 SOLVING FOR HEAD 


     2 CALLS TO PCG ROUTINE FOR TIME STEP   1 IN STRESS PERIOD    1
     9 TOTAL ITERATIONS

 MAXIMUM HEAD CHANGE FOR EACH ITERATION (1 INDICATES THE FIRST INNER ITERATION):

    HEAD CHANGE    HEAD CHANGE    HEAD CHANGE    HEAD CHANGE    HEAD CHANGE 
   LAYER,ROW,COL  LAYER,ROW,COL  LAYER,ROW,COL  LAYER,ROW,COL  LAYER,ROW,COL
 ---------------------------------------------------------------------------
  1 -0.1371E-01  0  0.4086E-02  0  0.4232E-02  0 -0.9114E-02  0  0.9670E-02
   ( 15,  1, 86)  ( 17,  1, 89)  (  8,  1, 12)  ( 11,  1, 52)  ( 11,  1, 52)
  0 -0.1703E-02  0  0.1237E-02  0 -0.7305E-03  1 -0.3710E-03
   ( 11,  1, 53)  ( 11,  1, 70)  ( 11,  1, 70)  ( 11,  1, 49)

 MAXIMUM RESIDUAL FOR EACH ITERATION (1 INDICATES THE FIRST INNER ITERATION):

    RESIDUAL       RESIDUAL       RESIDUAL       RESIDUAL       RESIDUAL    
   LAYER,ROW,COL  LAYER,ROW,COL  LAYER,ROW,COL  LAYER,ROW,COL  LAYER,ROW,COL
 ---------------------------------------------------------------------------
  1 -0.1361E+06  0  0.9700E+05  0  0.9625E+05  0  0.2043E+05  0  -4949.    
   ( 21,  1, 89)  ( 19,  1, 89)  ( 19,  1, 89)  ( 19,  1, 89)  ( 17,  1, 88)
  0  -2850.      0  -1792.      0  -634.3      1  -547.3    
   ( 22,  1, 87)  ( 22,  1, 87)  ( 22,  1, 87)  ( 22,  1, 87)


 FLOW MODEL IS TRANSIENT
 FLOW MODEL CONTAINS CONSTANT-HEAD CELLS


 MAXIMUM STEPSIZE DURING WHICH ANY PARTICLE CANNOT MOVE MORE THAN ONE CELL
 =  13.23    (WHEN MIN. R.F.=1)  AT K=  17, I=   1, J=  90

 MAXIMUM STEPSIZE WHICH MEETS STABILITY CRITERION OF THE ADVECTION TERM
 (FOR PURE FINITE-DIFFERENCE OPTION, MIXELM=0) 
 =  8.005    (WHEN MIN. R.F.=1)  AT K=  16, I=   1, J=  90


 TOTAL NUMBER OF POINT SOURCES/SINKS PRESENT IN THE FLOW MODEL =    30

 MAXIMUM STEPSIZE WHICH MEETS STABILITY CRITERION OF THE SINK & SOURCE TERM
 =  12.19    (WHEN MIN. R.F.=1)  AT K=  17, I=   1, J=  91

 MAXIMUM STEPSIZE WHICH MEETS STABILITY CRITERION OF THE DISPERSION TERM
 =  4.372    (WHEN MIN. R.F.=1)  AT K=  17, I=   1, J=  90
     1 CALLS TO GCG PACKAGE FOR TRANSPORT TIME STEP 524 IN FLOW TIME STEP   1 STRESS PERIOD   1
     9 TOTAL ITERATIONS
     1 CALLS TO GCG PACKAGE FOR TRANSPORT TIME STEP 524 IN FLOW TIME STEP   1 STRESS PERIOD   1
     8 TOTAL ITERATIONS
 
 SOLVING FOR HEAD 


     2 CALLS TO PCG ROUTINE FOR TIME STEP   1 IN STRESS PERIOD    1
     9 TOTAL ITERATIONS

 MAXIMUM HEAD CHANGE FOR EACH ITERATION (1 INDICATES THE FIRST INNER ITERATION):

    HEAD CHANGE    HEAD CHANGE    HEAD CHANGE    HEAD CHANGE    HEAD CHANGE 
   LAYER,ROW,COL  LAYER,ROW,COL  LAYER,ROW,COL  LAYER,ROW,COL  LAYER,ROW,COL
 ---------------------------------------------------------------------------
  1  0.1333E-01  0 -0.3741E-02  0 -0.4231E-02  0  0.7301E-02  0 -0.8693E-02
   ( 15,  1, 86)  ( 17,  1, 89)  (  6,  1, 12)  ( 11,  1, 49)  ( 11,  1, 49)
  0  0.1835E-02  0 -0.1134E-02  0 -0.8213E-03  1  0.8810E-03
   ( 11,  1, 37)  ( 11,  1, 56)  ( 11,  1, 70)  ( 11,  1, 69)

 MAXIMUM RESIDUAL FOR EACH ITERATION (1 INDICATES THE FIRST INNER ITERATION):

    RESIDUAL       RESIDUAL       RESIDUAL       RESIDUAL       RESIDUAL    
   LAYER,ROW,COL  LAYER,ROW,COL  LAYER,ROW,COL  LAYER,ROW,COL  LAYER,ROW,COL
 ---------------------------------------------------------------------------
  1  0.1352E+06  0 -0.9551E+05  0 -0.8014E+05  0 -0.2834E+05  0  -5854.    
   ( 21,  1, 89)  ( 19,  1, 89)  ( 19,  1, 89)  ( 19,  1, 89)  ( 17,  1, 87)
  0   2832.      0   2549.      0   817.4      1   675.4    
   ( 22,  1, 87)  ( 22,  1, 87)  ( 22,  1, 87)  ( 22,  1, 87)


 FLOW MODEL IS TRANSIENT
 FLOW MODEL CONTAINS CONSTANT-HEAD CELLS


 MAXIMUM STEPSIZE DURING WHICH ANY PARTICLE CANNOT MOVE MORE THAN ONE CELL
 =  12.84    (WHEN MIN. R.F.=1)  AT K=  17, I=   1, J=  90

 MAXIMUM STEPSIZE WHICH MEETS STABILITY CRITERION OF THE ADVECTION TERM
 (FOR PURE FINITE-DIFFERENCE OPTION, MIXELM=0) 
 =  8.032    (WHEN MIN. R.F.=1)  AT K=  16, I=   1, J=  90


 TOTAL NUMBER OF POINT SOURCES/SINKS PRESENT IN THE FLOW MODEL =    30

 MAXIMUM STEPSIZE WHICH MEETS STABILITY CRITERION OF THE SINK & SOURCE TERM
 =  12.20    (WHEN MIN. R.F.=1)  AT K=  17, I=   1, J=  91

 MAXIMUM STEPSIZE WHICH MEETS STABILITY CRITERION OF THE DISPERSION TERM
 =  4.024    (WHEN MIN. R.F.=1)  AT K=  17, I=   1, J=  90
     1 CALLS TO GCG PACKAGE FOR TRANSPORT TIME STEP 525 IN FLOW TIME STEP   1 STRESS PERIOD   1
     8 TOTAL ITERATIONS
  MAXIMUM CONCENTRATION CHANGES FOR EACH ITERATION:
  MAX. CHANGE LAYER,ROW,COL MAX. CHANGE LAYER,ROW,COL MAX. CHANGE LAYER,ROW,COL MAX. CHANGE LAYER,ROW,COL MAX. CHANGE LAYER,ROW,COL
 ------------------------------------------------------------------------------------------------------------------------------------
   0.5269E-01 ( 20,  1, 87)  0.4212E-02 ( 19,  1, 89)  0.2128E-02 ( 17,  1, 86)  0.4672E-03 ( 20,  1, 89)  0.9496E-04 ( 16,  1, 89)
   0.2027E-04 ( 20,  1, 89)  0.1850E-04 ( 16,  1, 90)  0.7430E-06 ( 17,  1, 90)
     1 CALLS TO GCG PACKAGE FOR TRANSPORT TIME STEP 525 IN FLOW TIME STEP   1 STRESS PERIOD   1
     8 TOTAL ITERATIONS
  MAXIMUM CONCENTRATION CHANGES FOR EACH ITERATION:
  MAX. CHANGE LAYER,ROW,COL MAX. CHANGE LAYER,ROW,COL MAX. CHANGE LAYER,ROW,COL MAX. CHANGE LAYER,ROW,COL MAX. CHANGE LAYER,ROW,COL
 ------------------------------------------------------------------------------------------------------------------------------------
   0.6009E-01 ( 20,  1, 87)  0.4915E-02 ( 19,  1, 89)  0.2084E-02 ( 18,  1, 86)  0.3923E-03 ( 23,  1, 87)  0.1137E-03 ( 16,  1, 89)
   0.2200E-04 ( 23,  1, 87)  0.1595E-04 ( 17,  1, 90)  0.8639E-06 ( 17,  1, 90)
 
 SOLVING FOR HEAD 


     2 CALLS TO PCG ROUTINE FOR TIME STEP   1 IN STRESS PERIOD    1
     8 TOTAL ITERATIONS

 MAXIMUM HEAD CHANGE FOR EACH ITERATION (1 INDICATES THE FIRST INNER ITERATION):

    HEAD CHANGE    HEAD CHANGE    HEAD CHANGE    HEAD CHANGE    HEAD CHANGE 
   LAYER,ROW,COL  LAYER,ROW,COL  LAYER,ROW,COL  LAYER,ROW,COL  LAYER,ROW,COL
 ---------------------------------------------------------------------------
  1 -0.1344E-01  0  0.3686E-02  0  0.3333E-02  0  0.1068E-01  0 -0.1182E-01
   ( 15,  1, 86)  ( 17,  1, 89)  (  8,  1, 12)  ( 11,  1, 58)  ( 11,  1, 58)
  0  0.1924E-02  0  0.9967E-03  1  0.6970E-03
   ( 11,  1, 57)  ( 11,  1, 63)  ( 11,  1, 49)

 MAXIMUM RESIDUAL FOR EACH ITERATION (1 INDICATES THE FIRST INNER ITERATION):

    RESIDUAL       RESIDUAL       RESIDUAL       RESIDUAL       RESIDUAL    
   LAYER,ROW,COL  LAYER,ROW,COL  LAYER,ROW,COL  LAYER,ROW,COL  LAYER,ROW,COL
 ---------------------------------------------------------------------------
  1 -0.1324E+06  0  0.9273E+05  0  0.9185E+05  0  0.2362E+05  0   5146.    
   ( 21,  1, 89)  ( 19,  1, 89)  ( 19,  1, 89)  ( 19,  1, 89)  ( 17,  1, 87)
  0  -2833.      0  -2336.      1  -2048.    
   ( 22,  1, 87)  ( 22,  1, 87)  ( 22,  1, 87)


 FLOW MODEL IS TRANSIENT
 FLOW MODEL CONTAINS CONSTANT-HEAD CELLS


 MAXIMUM STEPSIZE DURING WHICH ANY PARTICLE CANNOT MOVE MORE THAN ONE CELL
 =  13.23    (WHEN MIN. R.F.=1)  AT K=  17, I=   1, J=  90

 MAXIMUM STEPSIZE WHICH MEETS STABILITY CRITERION OF THE ADVECTION TERM
 (FOR PURE FINITE-DIFFERENCE OPTION, MIXELM=0) 
 =  8.008    (WHEN MIN. R.F.=1)  AT K=  16, I=   1, J=  90


 TOTAL NUMBER OF POINT SOURCES/SINKS PRESENT IN THE FLOW MODEL =    30

 MAXIMUM STEPSIZE WHICH MEETS STABILITY CRITERION OF THE SINK & SOURCE TERM
 =  12.18    (WHEN MIN. R.F.=1)  AT K=  17, I=   1, J=  91

 MAXIMUM STEPSIZE WHICH MEETS STABILITY CRITERION OF THE DISPERSION TERM
 =  4.366    (WHEN MIN. R.F.=1)  AT K=  17, I=   1, J=  90
     1 CALLS TO GCG PACKAGE FOR TRANSPORT TIME STEP 526 IN FLOW TIME STEP   1 STRESS PERIOD   1
    10 TOTAL ITERATIONS
     1 CALLS TO GCG PACKAGE FOR TRANSPORT TIME STEP 526 IN FLOW TIME STEP   1 STRESS PERIOD   1
     8 TOTAL ITERATIONS
 
 SOLVING FOR HEAD 


     2 CALLS TO PCG ROUTINE FOR TIME STEP   1 IN STRESS PERIOD    1
     9 TOTAL ITERATIONS

 MAXIMUM HEAD CHANGE FOR EACH ITERATION (1 INDICATES THE FIRST INNER ITERATION):

    HEAD CHANGE    HEAD CHANGE    HEAD CHANGE    HEAD CHANGE    HEAD CHANGE 
   LAYER,ROW,COL  LAYER,ROW,COL  LAYER,ROW,COL  LAYER,ROW,COL  LAYER,ROW,COL
 ---------------------------------------------------------------------------
  1  0.1380E-01  0  0.4814E-02  0 -0.3858E-02  0 -0.1187E-01  0  0.9306E-02
   ( 15,  1, 86)  ( 11,  1, 49)  (  8,  1, 12)  ( 11,  1, 49)  ( 11,  1, 49)
  0  0.1867E-02  0 -0.1027E-02  0 -0.6649E-03  1  0.7103E-03
   (  7,  1, 41)  ( 11,  1, 50)  ( 11,  1, 70)  ( 11,  1, 70)

 MAXIMUM RESIDUAL FOR EACH ITERATION (1 INDICATES THE FIRST INNER ITERATION):

    RESIDUAL       RESIDUAL       RESIDUAL       RESIDUAL       RESIDUAL    
   LAYER,ROW,COL  LAYER,ROW,COL  LAYER,ROW,COL  LAYER,ROW,COL  LAYER,ROW,COL
 ---------------------------------------------------------------------------
  1  0.1330E+06  0 -0.9406E+05  0 -0.9326E+05  0 -0.5996E+05  0  -5776.    
   ( 21,  1, 89)  ( 19,  1, 89)  ( 19,  1, 89)  ( 19,  1, 89)  ( 17,  1, 87)
  0   2802.      0   2630.      0   902.8      1   801.7    
   ( 22,  1, 87)  ( 22,  1, 87)  ( 22,  1, 87)  ( 22,  1, 87)


 FLOW MODEL IS TRANSIENT
 FLOW MODEL CONTAINS CONSTANT-HEAD CELLS


 MAXIMUM STEPSIZE DURING WHICH ANY PARTICLE CANNOT MOVE MORE THAN ONE CELL
 =  12.91    (WHEN MIN. R.F.=1)  AT K=  17, I=   1, J=  90

 MAXIMUM STEPSIZE WHICH MEETS STABILITY CRITERION OF THE ADVECTION TERM
 (FOR PURE FINITE-DIFFERENCE OPTION, MIXELM=0) 
 =  8.060    (WHEN MIN. R.F.=1)  AT K=  16, I=   1, J=  90


 TOTAL NUMBER OF POINT SOURCES/SINKS PRESENT IN THE FLOW MODEL =    30

 MAXIMUM STEPSIZE WHICH MEETS STABILITY CRITERION OF THE SINK & SOURCE TERM
 =  12.29    (WHEN MIN. R.F.=1)  AT K=  17, I=   1, J=  91

 MAXIMUM STEPSIZE WHICH MEETS STABILITY CRITERION OF THE DISPERSION TERM
 =  4.051    (WHEN MIN. R.F.=1)  AT K=  17, I=   1, J=  90
     1 CALLS TO GCG PACKAGE FOR TRANSPORT TIME STEP 527 IN FLOW TIME STEP   1 STRESS PERIOD   1
     8 TOTAL ITERATIONS
     1 CALLS TO GCG PACKAGE FOR TRANSPORT TIME STEP 527 IN FLOW TIME STEP   1 STRESS PERIOD   1
     8 TOTAL ITERATIONS
 
 SOLVING FOR HEAD 


     2 CALLS TO PCG ROUTINE FOR TIME STEP   1 IN STRESS PERIOD    1
     8 TOTAL ITERATIONS

 MAXIMUM HEAD CHANGE FOR EACH ITERATION (1 INDICATES THE FIRST INNER ITERATION):

    HEAD CHANGE    HEAD CHANGE    HEAD CHANGE    HEAD CHANGE    HEAD CHANGE 
   LAYER,ROW,COL  LAYER,ROW,COL  LAYER,ROW,COL  LAYER,ROW,COL  LAYER,ROW,COL
 ---------------------------------------------------------------------------
  1 -0.1359E-01  0  0.3959E-02  0  0.3583E-02  0 -0.7964E-02  0 -0.8630E-02
   ( 15,  1, 86)  ( 17,  1, 89)  (  8,  1, 12)  ( 11,  1, 69)  ( 11,  1, 55)
  0  0.1565E-02  0 -0.7162E-03  1  0.6646E-03
   ( 11,  1, 57)  ( 11,  1, 69)  ( 11,  1, 69)

 MAXIMUM RESIDUAL FOR EACH ITERATION (1 INDICATES THE FIRST INNER ITERATION):

    RESIDUAL       RESIDUAL       RESIDUAL       RESIDUAL       RESIDUAL    
   LAYER,ROW,COL  LAYER,ROW,COL  LAYER,ROW,COL  LAYER,ROW,COL  LAYER,ROW,COL
 ---------------------------------------------------------------------------
  1 -0.1354E+06  0  0.9631E+05  0  0.9544E+05  0  0.2407E+05  0   5230.    
   ( 21,  1, 89)  ( 19,  1, 89)  ( 19,  1, 89)  ( 19,  1, 89)  ( 17,  1, 87)
  0  -2847.      0  -2515.      1  -2101.    
   ( 22,  1, 87)  ( 22,  1, 87)  ( 22,  1, 87)


 FLOW MODEL IS TRANSIENT
 FLOW MODEL CONTAINS CONSTANT-HEAD CELLS


 MAXIMUM STEPSIZE DURING WHICH ANY PARTICLE CANNOT MOVE MORE THAN ONE CELL
 =  13.25    (WHEN MIN. R.F.=1)  AT K=  17, I=   1, J=  90

 MAXIMUM STEPSIZE WHICH MEETS STABILITY CRITERION OF THE ADVECTION TERM
 (FOR PURE FINITE-DIFFERENCE OPTION, MIXELM=0) 
 =  8.015    (WHEN MIN. R.F.=1)  AT K=  16, I=   1, J=  90


 TOTAL NUMBER OF POINT SOURCES/SINKS PRESENT IN THE FLOW MODEL =    30

 MAXIMUM STEPSIZE WHICH MEETS STABILITY CRITERION OF THE SINK & SOURCE TERM
 =  12.21    (WHEN MIN. R.F.=1)  AT K=  17, I=   1, J=  91

 MAXIMUM STEPSIZE WHICH MEETS STABILITY CRITERION OF THE DISPERSION TERM
 =  4.377    (WHEN MIN. R.F.=1)  AT K=  17, I=   1, J=  90
     1 CALLS TO GCG PACKAGE FOR TRANSPORT TIME STEP 528 IN FLOW TIME STEP   1 STRESS PERIOD   1
    10 TOTAL ITERATIONS
     1 CALLS TO GCG PACKAGE FOR TRANSPORT TIME STEP 528 IN FLOW TIME STEP   1 STRESS PERIOD   1
     8 TOTAL ITERATIONS
 
 SOLVING FOR HEAD 


     2 CALLS TO PCG ROUTINE FOR TIME STEP   1 IN STRESS PERIOD    1
    10 TOTAL ITERATIONS

 MAXIMUM HEAD CHANGE FOR EACH ITERATION (1 INDICATES THE FIRST INNER ITERATION):

    HEAD CHANGE    HEAD CHANGE    HEAD CHANGE    HEAD CHANGE    HEAD CHANGE 
   LAYER,ROW,COL  LAYER,ROW,COL  LAYER,ROW,COL  LAYER,ROW,COL  LAYER,ROW,COL
 ---------------------------------------------------------------------------
  1  0.1369E-01  0  0.6604E-02  0 -0.3195E-02  0 -0.9973E-02  0  0.6473E-02
   ( 15,  1, 86)  ( 11,  1, 68)  (  7,  1, 12)  ( 11,  1, 68)  (  9,  1, 52)
  0 -0.4580E-02  0 -0.1631E-02  0 -0.1047E-02  0  0.7182E-03  1  0.2817E-03
   ( 11,  1, 62)  ( 11,  1, 69)  ( 11,  1, 57)  ( 11,  1, 57)  ( 11,  1, 64)

 MAXIMUM RESIDUAL FOR EACH ITERATION (1 INDICATES THE FIRST INNER ITERATION):

    RESIDUAL       RESIDUAL       RESIDUAL       RESIDUAL       RESIDUAL    
   LAYER,ROW,COL  LAYER,ROW,COL  LAYER,ROW,COL  LAYER,ROW,COL  LAYER,ROW,COL
 ---------------------------------------------------------------------------
  1  0.1366E+06  0 -0.9715E+05  0 -0.9611E+05  0 -0.7564E+05  0  -6110.    
   ( 21,  1, 89)  ( 19,  1, 89)  ( 19,  1, 89)  ( 19,  1, 89)  ( 17,  1, 87)
  0   2883.      0   2594.      0   1237.      0   389.5      1   337.2    
   ( 17,  1, 88)  ( 22,  1, 87)  ( 22,  1, 87)  ( 22,  1, 87)  ( 22,  1, 87)


 FLOW MODEL IS TRANSIENT
 FLOW MODEL CONTAINS CONSTANT-HEAD CELLS


 MAXIMUM STEPSIZE DURING WHICH ANY PARTICLE CANNOT MOVE MORE THAN ONE CELL
 =  12.90    (WHEN MIN. R.F.=1)  AT K=  17, I=   1, J=  90

 MAXIMUM STEPSIZE WHICH MEETS STABILITY CRITERION OF THE ADVECTION TERM
 (FOR PURE FINITE-DIFFERENCE OPTION, MIXELM=0) 
 =  8.058    (WHEN MIN. R.F.=1)  AT K=  16, I=   1, J=  90


 TOTAL NUMBER OF POINT SOURCES/SINKS PRESENT IN THE FLOW MODEL =    30

 MAXIMUM STEPSIZE WHICH MEETS STABILITY CRITERION OF THE SINK & SOURCE TERM
 =  12.27    (WHEN MIN. R.F.=1)  AT K=  17, I=   1, J=  91

 MAXIMUM STEPSIZE WHICH MEETS STABILITY CRITERION OF THE DISPERSION TERM
 =  4.043    (WHEN MIN. R.F.=1)  AT K=  17, I=   1, J=  90
     1 CALLS TO GCG PACKAGE FOR TRANSPORT TIME STEP 529 IN FLOW TIME STEP   1 STRESS PERIOD   1
     8 TOTAL ITERATIONS
     1 CALLS TO GCG PACKAGE FOR TRANSPORT TIME STEP 529 IN FLOW TIME STEP   1 STRESS PERIOD   1
     8 TOTAL ITERATIONS
 
 SOLVING FOR HEAD 


     2 CALLS TO PCG ROUTINE FOR TIME STEP   1 IN STRESS PERIOD    1
     8 TOTAL ITERATIONS

 MAXIMUM HEAD CHANGE FOR EACH ITERATION (1 INDICATES THE FIRST INNER ITERATION):

    HEAD CHANGE    HEAD CHANGE    HEAD CHANGE    HEAD CHANGE    HEAD CHANGE 
   LAYER,ROW,COL  LAYER,ROW,COL  LAYER,ROW,COL  LAYER,ROW,COL  LAYER,ROW,COL
 ---------------------------------------------------------------------------
  1 -0.1357E-01  0  0.3927E-02  0  0.4047E-02  0  0.7304E-02  0 -0.9055E-02
   ( 15,  1, 86)  ( 17,  1, 89)  (  8,  1, 12)  ( 11,  1, 55)  ( 11,  1, 55)
  0  0.2007E-02  0 -0.8240E-03  1  0.8233E-03
   ( 11,  1, 54)  ( 11,  1, 63)  ( 11,  1, 63)

 MAXIMUM RESIDUAL FOR EACH ITERATION (1 INDICATES THE FIRST INNER ITERATION):

    RESIDUAL       RESIDUAL       RESIDUAL       RESIDUAL       RESIDUAL    
   LAYER,ROW,COL  LAYER,ROW,COL  LAYER,ROW,COL  LAYER,ROW,COL  LAYER,ROW,COL
 ---------------------------------------------------------------------------
  1 -0.1353E+06  0  0.9588E+05  0  0.9512E+05  0  0.1659E+05  0   4680.    
   ( 21,  1, 89)  ( 19,  1, 89)  ( 19,  1, 89)  ( 19,  1, 89)  ( 17,  1, 87)
  0  -2853.      0  -2319.      1  -2027.    
   ( 22,  1, 87)  ( 22,  1, 87)  ( 22,  1, 87)


 FLOW MODEL IS TRANSIENT
 FLOW MODEL CONTAINS CONSTANT-HEAD CELLS


 MAXIMUM STEPSIZE DURING WHICH ANY PARTICLE CANNOT MOVE MORE THAN ONE CELL
 =  13.27    (WHEN MIN. R.F.=1)  AT K=  17, I=   1, J=  90

 MAXIMUM STEPSIZE WHICH MEETS STABILITY CRITERION OF THE ADVECTION TERM
 (FOR PURE FINITE-DIFFERENCE OPTION, MIXELM=0) 
 =  8.025    (WHEN MIN. R.F.=1)  AT K=  16, I=   1, J=  90


 TOTAL NUMBER OF POINT SOURCES/SINKS PRESENT IN THE FLOW MODEL =    30

 MAXIMUM STEPSIZE WHICH MEETS STABILITY CRITERION OF THE SINK & SOURCE TERM
 =  12.22    (WHEN MIN. R.F.=1)  AT K=  17, I=   1, J=  91

 MAXIMUM STEPSIZE WHICH MEETS STABILITY CRITERION OF THE DISPERSION TERM
 =  4.392    (WHEN MIN. R.F.=1)  AT K=  17, I=   1, J=  90
     1 CALLS TO GCG PACKAGE FOR TRANSPORT TIME STEP 530 IN FLOW TIME STEP   1 STRESS PERIOD   1
    10 TOTAL ITERATIONS
  MAXIMUM CONCENTRATION CHANGES FOR EACH ITERATION:
  MAX. CHANGE LAYER,ROW,COL MAX. CHANGE LAYER,ROW,COL MAX. CHANGE LAYER,ROW,COL MAX. CHANGE LAYER,ROW,COL MAX. CHANGE LAYER,ROW,COL
 ------------------------------------------------------------------------------------------------------------------------------------
   0.4889E-01 ( 20,  1, 87)  0.3356E-02 ( 19,  1, 87)  0.2218E-02 ( 18,  1, 87)  0.2192E-03 ( 16,  1, 88)  0.1439E-03 ( 16,  1, 89)
   0.2949E-04 ( 16,  1, 90)  0.1322E-05 ( 21,  1, 78)  0.5113E-05 ( 21,  1, 78)  0.1100E-05 ( 16,  1, 89)  0.1030E-06 ( 17,  1, 89)
     1 CALLS TO GCG PACKAGE FOR TRANSPORT TIME STEP 530 IN FLOW TIME STEP   1 STRESS PERIOD   1
     8 TOTAL ITERATIONS
  MAXIMUM CONCENTRATION CHANGES FOR EACH ITERATION:
  MAX. CHANGE LAYER,ROW,COL MAX. CHANGE LAYER,ROW,COL MAX. CHANGE LAYER,ROW,COL MAX. CHANGE LAYER,ROW,COL MAX. CHANGE LAYER,ROW,COL
 ------------------------------------------------------------------------------------------------------------------------------------
   0.5553E-01 ( 19,  1, 88)  0.4006E-02 ( 19,  1, 87)  0.2365E-02 ( 18,  1, 87)  0.2471E-03 ( 18,  1, 87)  0.1367E-03 ( 17,  1, 89)
   0.3828E-04 ( 16,  1, 90)  0.5624E-05 ( 17,  1, 90)  0.6148E-06 ( 16,  1, 89)



 >>>>>>>>>>>>>>>>>>>>>>>>>>>>>>>>>>>>>>>>>>>>>>>>>>>>>>>FOR COMPONENT NO. 01<<<<<<<<<<<<<<<<<<<<<<<<<<<<<<<<<<<<<<<<<<<<<<<<<<<<<<<


                                            -------------------------------------------
                                                      TRANSPORT STEP NO.  530
                                            -------------------------------------------

 TOTAL ELAPSED TIME SINCE BEGINNING OF SIMULATION =   26500.00    D   
 .....................................................................

                     CUMMULATIVE MASS BUDGETS AT END OF TRANSPORT STEP  530, TIME STEP    1, STRESS PERIOD    1
                     ------------------------------------------------------------------------------------------

                                                             IN                           OUT
                                                      ----------------             ----------------
                               CONSTANT CONCENTRATION:    0.000000                    0.000000    
                                        CONSTANT HEAD:   0.1048653E+10              -0.1048449E+10
                                                WELLS:    0.000000                    0.000000    
                                             RECHARGE:    0.000000                    0.000000    
                               1ST/0TH ORDER REACTION:    0.000000                    0.000000    
                                MASS STORAGE (SOLUTE):   0.1466249E+09              -0.1468289E+09
                            ---------------------------------------------------------------------------
                                              [TOTAL]:   0.1195279E+10 KG           -0.1195279E+10 KG  

                                                          NET (IN - OUT):   -193.6739    
                                                   DISCREPANCY (PERCENT):  -0.1620324E-04



 >>>>>>>>>>>>>>>>>>>>>>>>>>>>>>>>>>>>>>>>>>>>>>>>>>>>>>>FOR COMPONENT NO. 02<<<<<<<<<<<<<<<<<<<<<<<<<<<<<<<<<<<<<<<<<<<<<<<<<<<<<<<


                                            -------------------------------------------
                                                      TRANSPORT STEP NO.  530
                                            -------------------------------------------

 TOTAL ELAPSED TIME SINCE BEGINNING OF SIMULATION =   26500.00    D   
 .....................................................................

                     CUMMULATIVE MASS BUDGETS AT END OF TRANSPORT STEP  530, TIME STEP    1, STRESS PERIOD    1
                     ------------------------------------------------------------------------------------------

                                                             IN                           OUT
                                                      ----------------             ----------------
                               CONSTANT CONCENTRATION:    0.000000                    0.000000    
                                        CONSTANT HEAD:    0.000000                  -0.1652169E+12
                                                WELLS:    0.000000                    0.000000    
                                             RECHARGE:    0.000000                    0.000000    
                               1ST/0TH ORDER REACTION:   0.4385750E+12                0.000000    
                                MASS STORAGE (SOLUTE):   0.5338623E+11              -0.3267444E+12
                            ---------------------------------------------------------------------------
                                              [TOTAL]:   0.4919620E+12 KG           -0.4919621E+12 KG  

                                                          NET (IN - OUT):   -57831.03    
                                                   DISCREPANCY (PERCENT):  -0.1175518E-04
 
 SOLVING FOR HEAD 


     2 CALLS TO PCG ROUTINE FOR TIME STEP   1 IN STRESS PERIOD    1
     9 TOTAL ITERATIONS

 MAXIMUM HEAD CHANGE FOR EACH ITERATION (1 INDICATES THE FIRST INNER ITERATION):

    HEAD CHANGE    HEAD CHANGE    HEAD CHANGE    HEAD CHANGE    HEAD CHANGE 
   LAYER,ROW,COL  LAYER,ROW,COL  LAYER,ROW,COL  LAYER,ROW,COL  LAYER,ROW,COL
 ---------------------------------------------------------------------------
  1  0.1358E-01  0  0.4754E-02  0 -0.2917E-02  0 -0.1049E-01  0  0.7920E-02
   ( 15,  1, 86)  ( 11,  1, 63)  (  7,  1, 12)  ( 11,  1, 63)  ( 10,  1, 52)
  0 -0.3427E-02  0 -0.1719E-02  0 -0.6277E-03  1  0.5643E-03
   ( 11,  1, 69)  ( 11,  1, 62)  ( 11,  1, 53)  ( 11,  1, 52)

 MAXIMUM RESIDUAL FOR EACH ITERATION (1 INDICATES THE FIRST INNER ITERATION):

    RESIDUAL       RESIDUAL       RESIDUAL       RESIDUAL       RESIDUAL    
   LAYER,ROW,COL  LAYER,ROW,COL  LAYER,ROW,COL  LAYER,ROW,COL  LAYER,ROW,COL
 ---------------------------------------------------------------------------
  1  0.1368E+06  0 -0.9719E+05  0 -0.9608E+05  0 -0.6332E+05  0  -6009.    
   ( 21,  1, 89)  ( 19,  1, 89)  ( 19,  1, 89)  ( 19,  1, 89)  ( 17,  1, 87)
  0   2778.      0   2597.      0   731.2      1   629.9    
   ( 22,  1, 87)  ( 22,  1, 87)  ( 22,  1, 87)  ( 22,  1, 87)


 FLOW MODEL IS TRANSIENT
 FLOW MODEL CONTAINS CONSTANT-HEAD CELLS


 MAXIMUM STEPSIZE DURING WHICH ANY PARTICLE CANNOT MOVE MORE THAN ONE CELL
 =  12.91    (WHEN MIN. R.F.=1)  AT K=  17, I=   1, J=  90

 MAXIMUM STEPSIZE WHICH MEETS STABILITY CRITERION OF THE ADVECTION TERM
 (FOR PURE FINITE-DIFFERENCE OPTION, MIXELM=0) 
 =  8.063    (WHEN MIN. R.F.=1)  AT K=  16, I=   1, J=  90


 TOTAL NUMBER OF POINT SOURCES/SINKS PRESENT IN THE FLOW MODEL =    30

 MAXIMUM STEPSIZE WHICH MEETS STABILITY CRITERION OF THE SINK & SOURCE TERM
 =  12.28    (WHEN MIN. R.F.=1)  AT K=  17, I=   1, J=  91

 MAXIMUM STEPSIZE WHICH MEETS STABILITY CRITERION OF THE DISPERSION TERM
 =  4.049    (WHEN MIN. R.F.=1)  AT K=  17, I=   1, J=  90
     1 CALLS TO GCG PACKAGE FOR TRANSPORT TIME STEP 531 IN FLOW TIME STEP   1 STRESS PERIOD   1
     8 TOTAL ITERATIONS
     1 CALLS TO GCG PACKAGE FOR TRANSPORT TIME STEP 531 IN FLOW TIME STEP   1 STRESS PERIOD   1
     8 TOTAL ITERATIONS
 
 SOLVING FOR HEAD 


     2 CALLS TO PCG ROUTINE FOR TIME STEP   1 IN STRESS PERIOD    1
     8 TOTAL ITERATIONS

 MAXIMUM HEAD CHANGE FOR EACH ITERATION (1 INDICATES THE FIRST INNER ITERATION):

    HEAD CHANGE    HEAD CHANGE    HEAD CHANGE    HEAD CHANGE    HEAD CHANGE 
   LAYER,ROW,COL  LAYER,ROW,COL  LAYER,ROW,COL  LAYER,ROW,COL  LAYER,ROW,COL
 ---------------------------------------------------------------------------
  1 -0.1366E-01  0 -0.4151E-02  0  0.4493E-02  0 -0.1374E-01  0  0.1446E-01
   ( 15,  1, 86)  (  7,  1, 12)  (  8,  1, 12)  ( 11,  1, 52)  ( 11,  1, 52)
  0 -0.2429E-02  0  0.9673E-03  1  0.7342E-03
   ( 11,  1, 51)  ( 11,  1, 58)  ( 11,  1, 65)

 MAXIMUM RESIDUAL FOR EACH ITERATION (1 INDICATES THE FIRST INNER ITERATION):

    RESIDUAL       RESIDUAL       RESIDUAL       RESIDUAL       RESIDUAL    
   LAYER,ROW,COL  LAYER,ROW,COL  LAYER,ROW,COL  LAYER,ROW,COL  LAYER,ROW,COL
 ---------------------------------------------------------------------------
  1 -0.1375E+06  0  0.9764E+05  0  0.9693E+05  0  0.2150E+05  0   4799.    
   ( 21,  1, 89)  ( 19,  1, 89)  ( 19,  1, 89)  ( 19,  1, 89)  ( 17,  1, 87)
  0  -2825.      0  -2454.      1  -2032.    
   ( 22,  1, 87)  ( 22,  1, 87)  ( 22,  1, 87)


 FLOW MODEL IS TRANSIENT
 FLOW MODEL CONTAINS CONSTANT-HEAD CELLS


 MAXIMUM STEPSIZE DURING WHICH ANY PARTICLE CANNOT MOVE MORE THAN ONE CELL
 =  13.26    (WHEN MIN. R.F.=1)  AT K=  17, I=   1, J=  90

 MAXIMUM STEPSIZE WHICH MEETS STABILITY CRITERION OF THE ADVECTION TERM
 (FOR PURE FINITE-DIFFERENCE OPTION, MIXELM=0) 
 =  8.021    (WHEN MIN. R.F.=1)  AT K=  16, I=   1, J=  90


 TOTAL NUMBER OF POINT SOURCES/SINKS PRESENT IN THE FLOW MODEL =    30

 MAXIMUM STEPSIZE WHICH MEETS STABILITY CRITERION OF THE SINK & SOURCE TERM
 =  12.21    (WHEN MIN. R.F.=1)  AT K=  17, I=   1, J=  91

 MAXIMUM STEPSIZE WHICH MEETS STABILITY CRITERION OF THE DISPERSION TERM
 =  4.387    (WHEN MIN. R.F.=1)  AT K=  17, I=   1, J=  90
     1 CALLS TO GCG PACKAGE FOR TRANSPORT TIME STEP 532 IN FLOW TIME STEP   1 STRESS PERIOD   1
     7 TOTAL ITERATIONS
     1 CALLS TO GCG PACKAGE FOR TRANSPORT TIME STEP 532 IN FLOW TIME STEP   1 STRESS PERIOD   1
     8 TOTAL ITERATIONS
 
 SOLVING FOR HEAD 


     2 CALLS TO PCG ROUTINE FOR TIME STEP   1 IN STRESS PERIOD    1
    10 TOTAL ITERATIONS

 MAXIMUM HEAD CHANGE FOR EACH ITERATION (1 INDICATES THE FIRST INNER ITERATION):

    HEAD CHANGE    HEAD CHANGE    HEAD CHANGE    HEAD CHANGE    HEAD CHANGE 
   LAYER,ROW,COL  LAYER,ROW,COL  LAYER,ROW,COL  LAYER,ROW,COL  LAYER,ROW,COL
 ---------------------------------------------------------------------------
  1  0.1363E-01  0  0.6519E-02  0 -0.2901E-02  0 -0.1220E-01  0  0.9146E-02
   ( 15,  1, 86)  ( 11,  1, 65)  (  8,  1, 12)  ( 11,  1, 66)  ( 11,  1, 67)
  0 -0.4079E-02  0  0.1322E-02  0 -0.1066E-02  0  0.6902E-03  1  0.2215E-03
   ( 11,  1, 59)  ( 11,  1, 58)  ( 11,  1, 53)  ( 11,  1, 53)  ( 11,  1, 64)

 MAXIMUM RESIDUAL FOR EACH ITERATION (1 INDICATES THE FIRST INNER ITERATION):

    RESIDUAL       RESIDUAL       RESIDUAL       RESIDUAL       RESIDUAL    
   LAYER,ROW,COL  LAYER,ROW,COL  LAYER,ROW,COL  LAYER,ROW,COL  LAYER,ROW,COL
 ---------------------------------------------------------------------------
  1  0.1371E+06  0 -0.9771E+05  0 -0.9654E+05  0 -0.6893E+05  0  -6265.    
   ( 21,  1, 89)  ( 19,  1, 89)  ( 19,  1, 89)  ( 19,  1, 89)  ( 17,  1, 87)
  0   3062.      0   2605.      0   1790.      0   413.5      1   355.1    
   ( 17,  1, 88)  ( 22,  1, 87)  ( 22,  1, 87)  ( 22,  1, 87)  ( 22,  1, 87)


 FLOW MODEL IS TRANSIENT
 FLOW MODEL CONTAINS CONSTANT-HEAD CELLS


 MAXIMUM STEPSIZE DURING WHICH ANY PARTICLE CANNOT MOVE MORE THAN ONE CELL
 =  12.90    (WHEN MIN. R.F.=1)  AT K=  17, I=   1, J=  90

 MAXIMUM STEPSIZE WHICH MEETS STABILITY CRITERION OF THE ADVECTION TERM
 (FOR PURE FINITE-DIFFERENCE OPTION, MIXELM=0) 
 =  8.061    (WHEN MIN. R.F.=1)  AT K=  16, I=   1, J=  90


 TOTAL NUMBER OF POINT SOURCES/SINKS PRESENT IN THE FLOW MODEL =    30

 MAXIMUM STEPSIZE WHICH MEETS STABILITY CRITERION OF THE SINK & SOURCE TERM
 =  12.27    (WHEN MIN. R.F.=1)  AT K=  17, I=   1, J=  91

 MAXIMUM STEPSIZE WHICH MEETS STABILITY CRITERION OF THE DISPERSION TERM
 =  4.044    (WHEN MIN. R.F.=1)  AT K=  17, I=   1, J=  90
     1 CALLS TO GCG PACKAGE FOR TRANSPORT TIME STEP 533 IN FLOW TIME STEP   1 STRESS PERIOD   1
     8 TOTAL ITERATIONS
     1 CALLS TO GCG PACKAGE FOR TRANSPORT TIME STEP 533 IN FLOW TIME STEP   1 STRESS PERIOD   1
     8 TOTAL ITERATIONS
 
 SOLVING FOR HEAD 


     2 CALLS TO PCG ROUTINE FOR TIME STEP   1 IN STRESS PERIOD    1
     8 TOTAL ITERATIONS

 MAXIMUM HEAD CHANGE FOR EACH ITERATION (1 INDICATES THE FIRST INNER ITERATION):

    HEAD CHANGE    HEAD CHANGE    HEAD CHANGE    HEAD CHANGE    HEAD CHANGE 
   LAYER,ROW,COL  LAYER,ROW,COL  LAYER,ROW,COL  LAYER,ROW,COL  LAYER,ROW,COL
 ---------------------------------------------------------------------------
  1 -0.1362E-01  0 -0.4202E-02  0  0.4567E-02  0  0.6479E-02  0 -0.7922E-02
   ( 15,  1, 86)  (  7,  1, 12)  (  8,  1, 12)  ( 11,  1, 52)  ( 11,  1, 52)
  0 -0.1566E-02  0  0.7840E-03  1 -0.5685E-03
   ( 11,  1, 38)  ( 11,  1, 51)  ( 11,  1, 51)

 MAXIMUM RESIDUAL FOR EACH ITERATION (1 INDICATES THE FIRST INNER ITERATION):

    RESIDUAL       RESIDUAL       RESIDUAL       RESIDUAL       RESIDUAL    
   LAYER,ROW,COL  LAYER,ROW,COL  LAYER,ROW,COL  LAYER,ROW,COL  LAYER,ROW,COL
 ---------------------------------------------------------------------------
  1 -0.1366E+06  0  0.9674E+05  0  0.9606E+05  0  0.1643E+05  0   4624.    
   ( 21,  1, 89)  ( 19,  1, 89)  ( 19,  1, 89)  ( 19,  1, 89)  ( 17,  1, 87)
  0  -2840.      0  -2465.      1  -2081.    
   ( 22,  1, 87)  ( 22,  1, 87)  ( 22,  1, 87)


 FLOW MODEL IS TRANSIENT
 FLOW MODEL CONTAINS CONSTANT-HEAD CELLS


 MAXIMUM STEPSIZE DURING WHICH ANY PARTICLE CANNOT MOVE MORE THAN ONE CELL
 =  13.28    (WHEN MIN. R.F.=1)  AT K=  17, I=   1, J=  90

 MAXIMUM STEPSIZE WHICH MEETS STABILITY CRITERION OF THE ADVECTION TERM
 (FOR PURE FINITE-DIFFERENCE OPTION, MIXELM=0) 
 =  8.027    (WHEN MIN. R.F.=1)  AT K=  16, I=   1, J=  90


 TOTAL NUMBER OF POINT SOURCES/SINKS PRESENT IN THE FLOW MODEL =    30

 MAXIMUM STEPSIZE WHICH MEETS STABILITY CRITERION OF THE SINK & SOURCE TERM
 =  12.22    (WHEN MIN. R.F.=1)  AT K=  17, I=   1, J=  91

 MAXIMUM STEPSIZE WHICH MEETS STABILITY CRITERION OF THE DISPERSION TERM
 =  4.394    (WHEN MIN. R.F.=1)  AT K=  17, I=   1, J=  90
     1 CALLS TO GCG PACKAGE FOR TRANSPORT TIME STEP 534 IN FLOW TIME STEP   1 STRESS PERIOD   1
    10 TOTAL ITERATIONS
     1 CALLS TO GCG PACKAGE FOR TRANSPORT TIME STEP 534 IN FLOW TIME STEP   1 STRESS PERIOD   1
     8 TOTAL ITERATIONS
 
 SOLVING FOR HEAD 


     2 CALLS TO PCG ROUTINE FOR TIME STEP   1 IN STRESS PERIOD    1
     9 TOTAL ITERATIONS

 MAXIMUM HEAD CHANGE FOR EACH ITERATION (1 INDICATES THE FIRST INNER ITERATION):

    HEAD CHANGE    HEAD CHANGE    HEAD CHANGE    HEAD CHANGE    HEAD CHANGE 
   LAYER,ROW,COL  LAYER,ROW,COL  LAYER,ROW,COL  LAYER,ROW,COL  LAYER,ROW,COL
 ---------------------------------------------------------------------------
  1  0.1360E-01  0 -0.6043E-02  0 -0.2795E-02  0  0.9745E-02  0  0.7181E-02
   ( 15,  1, 86)  ( 11,  1, 51)  (  7,  1, 12)  ( 11,  1, 51)  (  7,  1, 53)
  0  0.3329E-02  0  0.1102E-02  0 -0.7265E-03  1  0.5417E-03
   ( 11,  1, 42)  ( 11,  1, 52)  ( 11,  1, 54)  ( 11,  1, 54)

 MAXIMUM RESIDUAL FOR EACH ITERATION (1 INDICATES THE FIRST INNER ITERATION):

    RESIDUAL       RESIDUAL       RESIDUAL       RESIDUAL       RESIDUAL    
   LAYER,ROW,COL  LAYER,ROW,COL  LAYER,ROW,COL  LAYER,ROW,COL  LAYER,ROW,COL
 ---------------------------------------------------------------------------
  1  0.1369E+06  0 -0.9734E+05  0 -0.9610E+05  0 -0.7260E+05  0  -6231.    
   ( 21,  1, 89)  ( 19,  1, 89)  ( 19,  1, 89)  ( 19,  1, 89)  ( 17,  1, 87)
  0   2951.      0   2614.      0   970.3      1   861.1    
   ( 17,  1, 88)  ( 22,  1, 87)  ( 22,  1, 87)  ( 22,  1, 87)


 FLOW MODEL IS TRANSIENT
 FLOW MODEL CONTAINS CONSTANT-HEAD CELLS


 MAXIMUM STEPSIZE DURING WHICH ANY PARTICLE CANNOT MOVE MORE THAN ONE CELL
 =  12.91    (WHEN MIN. R.F.=1)  AT K=  17, I=   1, J=  90

 MAXIMUM STEPSIZE WHICH MEETS STABILITY CRITERION OF THE ADVECTION TERM
 (FOR PURE FINITE-DIFFERENCE OPTION, MIXELM=0) 
 =  8.064    (WHEN MIN. R.F.=1)  AT K=  16, I=   1, J=  90


 TOTAL NUMBER OF POINT SOURCES/SINKS PRESENT IN THE FLOW MODEL =    30

 MAXIMUM STEPSIZE WHICH MEETS STABILITY CRITERION OF THE SINK & SOURCE TERM
 =  12.28    (WHEN MIN. R.F.=1)  AT K=  17, I=   1, J=  91

 MAXIMUM STEPSIZE WHICH MEETS STABILITY CRITERION OF THE DISPERSION TERM
 =  4.049    (WHEN MIN. R.F.=1)  AT K=  17, I=   1, J=  90
     1 CALLS TO GCG PACKAGE FOR TRANSPORT TIME STEP 535 IN FLOW TIME STEP   1 STRESS PERIOD   1
     8 TOTAL ITERATIONS
  MAXIMUM CONCENTRATION CHANGES FOR EACH ITERATION:
  MAX. CHANGE LAYER,ROW,COL MAX. CHANGE LAYER,ROW,COL MAX. CHANGE LAYER,ROW,COL MAX. CHANGE LAYER,ROW,COL MAX. CHANGE LAYER,ROW,COL
 ------------------------------------------------------------------------------------------------------------------------------------
   0.5197E-01 ( 20,  1, 87)  0.4258E-02 ( 19,  1, 89)  0.2088E-02 ( 17,  1, 86)  0.5105E-03 ( 20,  1, 89)  0.9630E-04 ( 16,  1, 89)
   0.2028E-04 ( 20,  1, 89)  0.2140E-04 ( 16,  1, 90)  0.6702E-06 ( 17,  1, 90)
     1 CALLS TO GCG PACKAGE FOR TRANSPORT TIME STEP 535 IN FLOW TIME STEP   1 STRESS PERIOD   1
     8 TOTAL ITERATIONS
  MAXIMUM CONCENTRATION CHANGES FOR EACH ITERATION:
  MAX. CHANGE LAYER,ROW,COL MAX. CHANGE LAYER,ROW,COL MAX. CHANGE LAYER,ROW,COL MAX. CHANGE LAYER,ROW,COL MAX. CHANGE LAYER,ROW,COL
 ------------------------------------------------------------------------------------------------------------------------------------
   0.5972E-01 ( 20,  1, 87)  0.5006E-02 ( 19,  1, 89)  0.2051E-02 ( 18,  1, 86)  0.4234E-03 ( 20,  1, 89)  0.1133E-03 ( 16,  1, 89)
   0.2361E-04 ( 23,  1, 87)  0.1741E-04 ( 17,  1, 90)  0.8669E-06 ( 17,  1, 90)
 
 SOLVING FOR HEAD 


     2 CALLS TO PCG ROUTINE FOR TIME STEP   1 IN STRESS PERIOD    1
     8 TOTAL ITERATIONS

 MAXIMUM HEAD CHANGE FOR EACH ITERATION (1 INDICATES THE FIRST INNER ITERATION):

    HEAD CHANGE    HEAD CHANGE    HEAD CHANGE    HEAD CHANGE    HEAD CHANGE 
   LAYER,ROW,COL  LAYER,ROW,COL  LAYER,ROW,COL  LAYER,ROW,COL  LAYER,ROW,COL
 ---------------------------------------------------------------------------
  1 -0.1369E-01  0 -0.4351E-02  0  0.4693E-02  0 -0.9754E-02  0  0.1008E-01
   ( 15,  1, 86)  (  8,  1, 12)  (  8,  1, 12)  ( 11,  1, 53)  ( 11,  1, 53)
  0 -0.1803E-02  0  0.7200E-03  1 -0.5812E-03
   ( 11,  1, 51)  ( 11,  1, 35)  ( 11,  1, 35)

 MAXIMUM RESIDUAL FOR EACH ITERATION (1 INDICATES THE FIRST INNER ITERATION):

    RESIDUAL       RESIDUAL       RESIDUAL       RESIDUAL       RESIDUAL    
   LAYER,ROW,COL  LAYER,ROW,COL  LAYER,ROW,COL  LAYER,ROW,COL  LAYER,ROW,COL
 ---------------------------------------------------------------------------
  1 -0.1381E+06  0  0.9825E+05  0  0.9758E+05  0  0.2285E+05  0  -5054.    
   ( 21,  1, 89)  ( 19,  1, 89)  ( 19,  1, 89)  ( 19,  1, 89)  ( 17,  1, 88)
  0  -2832.      0  -2234.      1  -1936.    
   ( 22,  1, 87)  ( 22,  1, 87)  ( 22,  1, 87)


 FLOW MODEL IS TRANSIENT
 FLOW MODEL CONTAINS CONSTANT-HEAD CELLS


 MAXIMUM STEPSIZE DURING WHICH ANY PARTICLE CANNOT MOVE MORE THAN ONE CELL
 =  13.26    (WHEN MIN. R.F.=1)  AT K=  17, I=   1, J=  90

 MAXIMUM STEPSIZE WHICH MEETS STABILITY CRITERION OF THE ADVECTION TERM
 (FOR PURE FINITE-DIFFERENCE OPTION, MIXELM=0) 
 =  8.018    (WHEN MIN. R.F.=1)  AT K=  16, I=   1, J=  90


 TOTAL NUMBER OF POINT SOURCES/SINKS PRESENT IN THE FLOW MODEL =    30

 MAXIMUM STEPSIZE WHICH MEETS STABILITY CRITERION OF THE SINK & SOURCE TERM
 =  12.20    (WHEN MIN. R.F.=1)  AT K=  17, I=   1, J=  91

 MAXIMUM STEPSIZE WHICH MEETS STABILITY CRITERION OF THE DISPERSION TERM
 =  4.384    (WHEN MIN. R.F.=1)  AT K=  17, I=   1, J=  90
     1 CALLS TO GCG PACKAGE FOR TRANSPORT TIME STEP 536 IN FLOW TIME STEP   1 STRESS PERIOD   1
    10 TOTAL ITERATIONS
     1 CALLS TO GCG PACKAGE FOR TRANSPORT TIME STEP 536 IN FLOW TIME STEP   1 STRESS PERIOD   1
     8 TOTAL ITERATIONS
 
 SOLVING FOR HEAD 


     2 CALLS TO PCG ROUTINE FOR TIME STEP   1 IN STRESS PERIOD    1
    10 TOTAL ITERATIONS

 MAXIMUM HEAD CHANGE FOR EACH ITERATION (1 INDICATES THE FIRST INNER ITERATION):

    HEAD CHANGE    HEAD CHANGE    HEAD CHANGE    HEAD CHANGE    HEAD CHANGE 
   LAYER,ROW,COL  LAYER,ROW,COL  LAYER,ROW,COL  LAYER,ROW,COL  LAYER,ROW,COL
 ---------------------------------------------------------------------------
  1  0.1363E-01  0 -0.4069E-02  0 -0.2824E-02  0  0.1113E-01  0  0.9258E-02
   ( 15,  1, 86)  ( 17,  1, 89)  (  8,  1, 12)  ( 11,  1, 35)  ( 11,  1, 67)
  0  0.2973E-02  0 -0.1090E-02  0 -0.1018E-02  0  0.6664E-03  1  0.2657E-03
   ( 11,  1, 43)  ( 11,  1, 43)  ( 11,  1, 56)  ( 11,  1, 56)  ( 11,  1, 66)

 MAXIMUM RESIDUAL FOR EACH ITERATION (1 INDICATES THE FIRST INNER ITERATION):

    RESIDUAL       RESIDUAL       RESIDUAL       RESIDUAL       RESIDUAL    
   LAYER,ROW,COL  LAYER,ROW,COL  LAYER,ROW,COL  LAYER,ROW,COL  LAYER,ROW,COL
 ---------------------------------------------------------------------------
  1  0.1370E+06  0 -0.9782E+05  0 -0.9668E+05  0 -0.5071E+05  0  -5942.    
   ( 21,  1, 89)  ( 19,  1, 89)  ( 19,  1, 89)  ( 19,  1, 89)  ( 17,  1, 87)
  0   2907.      0   2588.      0   1338.      0   399.5      1   341.5    
   ( 17,  1, 88)  ( 22,  1, 87)  ( 22,  1, 87)  ( 22,  1, 87)  ( 22,  1, 87)


 FLOW MODEL IS TRANSIENT
 FLOW MODEL CONTAINS CONSTANT-HEAD CELLS


 MAXIMUM STEPSIZE DURING WHICH ANY PARTICLE CANNOT MOVE MORE THAN ONE CELL
 =  12.89    (WHEN MIN. R.F.=1)  AT K=  17, I=   1, J=  90

 MAXIMUM STEPSIZE WHICH MEETS STABILITY CRITERION OF THE ADVECTION TERM
 (FOR PURE FINITE-DIFFERENCE OPTION, MIXELM=0) 
 =  8.057    (WHEN MIN. R.F.=1)  AT K=  16, I=   1, J=  90


 TOTAL NUMBER OF POINT SOURCES/SINKS PRESENT IN THE FLOW MODEL =    30

 MAXIMUM STEPSIZE WHICH MEETS STABILITY CRITERION OF THE SINK & SOURCE TERM
 =  12.25    (WHEN MIN. R.F.=1)  AT K=  17, I=   1, J=  91

 MAXIMUM STEPSIZE WHICH MEETS STABILITY CRITERION OF THE DISPERSION TERM
 =  4.039    (WHEN MIN. R.F.=1)  AT K=  17, I=   1, J=  90
     1 CALLS TO GCG PACKAGE FOR TRANSPORT TIME STEP 537 IN FLOW TIME STEP   1 STRESS PERIOD   1
     8 TOTAL ITERATIONS
     1 CALLS TO GCG PACKAGE FOR TRANSPORT TIME STEP 537 IN FLOW TIME STEP   1 STRESS PERIOD   1
     8 TOTAL ITERATIONS
 
 SOLVING FOR HEAD 


     2 CALLS TO PCG ROUTINE FOR TIME STEP   1 IN STRESS PERIOD    1
     8 TOTAL ITERATIONS

 MAXIMUM HEAD CHANGE FOR EACH ITERATION (1 INDICATES THE FIRST INNER ITERATION):

    HEAD CHANGE    HEAD CHANGE    HEAD CHANGE    HEAD CHANGE    HEAD CHANGE 
   LAYER,ROW,COL  LAYER,ROW,COL  LAYER,ROW,COL  LAYER,ROW,COL  LAYER,ROW,COL
 ---------------------------------------------------------------------------
  1 -0.1358E-01  0 -0.4205E-02  0  0.4556E-02  0  0.5559E-02  0 -0.7233E-02
   ( 15,  1, 86)  (  7,  1, 12)  (  8,  1, 12)  ( 11,  1, 57)  ( 11,  1, 57)
  0  0.1690E-02  0  0.6088E-03  1  0.5819E-03
   ( 11,  1, 57)  ( 11,  1, 43)  ( 11,  1, 66)

 MAXIMUM RESIDUAL FOR EACH ITERATION (1 INDICATES THE FIRST INNER ITERATION):

    RESIDUAL       RESIDUAL       RESIDUAL       RESIDUAL       RESIDUAL    
   LAYER,ROW,COL  LAYER,ROW,COL  LAYER,ROW,COL  LAYER,ROW,COL  LAYER,ROW,COL
 ---------------------------------------------------------------------------
  1 -0.1360E+06  0  0.9612E+05  0  0.9545E+05  0  0.1624E+05  0   4726.    
   ( 21,  1, 89)  ( 19,  1, 89)  ( 19,  1, 89)  ( 19,  1, 89)  ( 17,  1, 87)
  0  -2853.      0  -2396.      1  -2075.    
   ( 22,  1, 87)  ( 22,  1, 87)  ( 22,  1, 87)


 FLOW MODEL IS TRANSIENT
 FLOW MODEL CONTAINS CONSTANT-HEAD CELLS


 MAXIMUM STEPSIZE DURING WHICH ANY PARTICLE CANNOT MOVE MORE THAN ONE CELL
 =  13.28    (WHEN MIN. R.F.=1)  AT K=  17, I=   1, J=  90

 MAXIMUM STEPSIZE WHICH MEETS STABILITY CRITERION OF THE ADVECTION TERM
 (FOR PURE FINITE-DIFFERENCE OPTION, MIXELM=0) 
 =  8.026    (WHEN MIN. R.F.=1)  AT K=  16, I=   1, J=  90


 TOTAL NUMBER OF POINT SOURCES/SINKS PRESENT IN THE FLOW MODEL =    30

 MAXIMUM STEPSIZE WHICH MEETS STABILITY CRITERION OF THE SINK & SOURCE TERM
 =  12.21    (WHEN MIN. R.F.=1)  AT K=  17, I=   1, J=  91

 MAXIMUM STEPSIZE WHICH MEETS STABILITY CRITERION OF THE DISPERSION TERM
 =  4.394    (WHEN MIN. R.F.=1)  AT K=  17, I=   1, J=  90
     1 CALLS TO GCG PACKAGE FOR TRANSPORT TIME STEP 538 IN FLOW TIME STEP   1 STRESS PERIOD   1
    10 TOTAL ITERATIONS
     1 CALLS TO GCG PACKAGE FOR TRANSPORT TIME STEP 538 IN FLOW TIME STEP   1 STRESS PERIOD   1
     8 TOTAL ITERATIONS
 
 SOLVING FOR HEAD 


     2 CALLS TO PCG ROUTINE FOR TIME STEP   1 IN STRESS PERIOD    1
     9 TOTAL ITERATIONS

 MAXIMUM HEAD CHANGE FOR EACH ITERATION (1 INDICATES THE FIRST INNER ITERATION):

    HEAD CHANGE    HEAD CHANGE    HEAD CHANGE    HEAD CHANGE    HEAD CHANGE 
   LAYER,ROW,COL  LAYER,ROW,COL  LAYER,ROW,COL  LAYER,ROW,COL  LAYER,ROW,COL
 ---------------------------------------------------------------------------
  1  0.1361E-01  0  0.4525E-02  0 -0.2828E-02  0 -0.9380E-02  0  0.7550E-02
   ( 15,  1, 86)  ( 11,  1, 67)  (  7,  1, 12)  ( 11,  1, 67)  ( 11,  1, 67)
  0  0.2736E-02  0  0.1254E-02  0 -0.7475E-03  1  0.6222E-03
   ( 11,  1, 35)  ( 11,  1, 58)  ( 11,  1, 52)  ( 11,  1, 52)

 MAXIMUM RESIDUAL FOR EACH ITERATION (1 INDICATES THE FIRST INNER ITERATION):

    RESIDUAL       RESIDUAL       RESIDUAL       RESIDUAL       RESIDUAL    
   LAYER,ROW,COL  LAYER,ROW,COL  LAYER,ROW,COL  LAYER,ROW,COL  LAYER,ROW,COL
 ---------------------------------------------------------------------------
  1  0.1367E+06  0 -0.9705E+05  0 -0.9588E+05  0 -0.6850E+05  0  -6040.    
   ( 21,  1, 89)  ( 19,  1, 89)  ( 19,  1, 89)  ( 19,  1, 89)  ( 17,  1, 87)
  0   2774.      0   2610.      0   1228.      1   1094.    
   ( 22,  1, 87)  ( 22,  1, 87)  ( 22,  1, 87)  ( 22,  1, 87)


 FLOW MODEL IS TRANSIENT
 FLOW MODEL CONTAINS CONSTANT-HEAD CELLS


 MAXIMUM STEPSIZE DURING WHICH ANY PARTICLE CANNOT MOVE MORE THAN ONE CELL
 =  12.91    (WHEN MIN. R.F.=1)  AT K=  17, I=   1, J=  90

 MAXIMUM STEPSIZE WHICH MEETS STABILITY CRITERION OF THE ADVECTION TERM
 (FOR PURE FINITE-DIFFERENCE OPTION, MIXELM=0) 
 =  8.064    (WHEN MIN. R.F.=1)  AT K=  16, I=   1, J=  90


 TOTAL NUMBER OF POINT SOURCES/SINKS PRESENT IN THE FLOW MODEL =    30

 MAXIMUM STEPSIZE WHICH MEETS STABILITY CRITERION OF THE SINK & SOURCE TERM
 =  12.28    (WHEN MIN. R.F.=1)  AT K=  17, I=   1, J=  91

 MAXIMUM STEPSIZE WHICH MEETS STABILITY CRITERION OF THE DISPERSION TERM
 =  4.049    (WHEN MIN. R.F.=1)  AT K=  17, I=   1, J=  90
     1 CALLS TO GCG PACKAGE FOR TRANSPORT TIME STEP 539 IN FLOW TIME STEP   1 STRESS PERIOD   1
     8 TOTAL ITERATIONS
     1 CALLS TO GCG PACKAGE FOR TRANSPORT TIME STEP 539 IN FLOW TIME STEP   1 STRESS PERIOD   1
     8 TOTAL ITERATIONS
 
 SOLVING FOR HEAD 


     2 CALLS TO PCG ROUTINE FOR TIME STEP   1 IN STRESS PERIOD    1
     8 TOTAL ITERATIONS

 MAXIMUM HEAD CHANGE FOR EACH ITERATION (1 INDICATES THE FIRST INNER ITERATION):

    HEAD CHANGE    HEAD CHANGE    HEAD CHANGE    HEAD CHANGE    HEAD CHANGE 
   LAYER,ROW,COL  LAYER,ROW,COL  LAYER,ROW,COL  LAYER,ROW,COL  LAYER,ROW,COL
 ---------------------------------------------------------------------------
  1 -0.1374E-01  0 -0.4662E-02  0  0.4985E-02  0 -0.1049E-01  0  0.1085E-01
   ( 15,  1, 86)  (  8,  1, 12)  (  8,  1, 12)  ( 11,  1, 53)  ( 11,  1, 53)
  0  0.1870E-02  0  0.9082E-03  1 -0.6484E-03
   ( 11,  1, 68)  ( 11,  1, 70)  ( 11,  1, 70)

 MAXIMUM RESIDUAL FOR EACH ITERATION (1 INDICATES THE FIRST INNER ITERATION):

    RESIDUAL       RESIDUAL       RESIDUAL       RESIDUAL       RESIDUAL    
   LAYER,ROW,COL  LAYER,ROW,COL  LAYER,ROW,COL  LAYER,ROW,COL  LAYER,ROW,COL
 ---------------------------------------------------------------------------
  1 -0.1386E+06  0  0.9878E+05  0  0.9815E+05  0  0.2150E+05  0  -5043.    
   ( 21,  1, 89)  ( 19,  1, 89)  ( 19,  1, 89)  ( 19,  1, 89)  ( 17,  1, 88)
  0  -2829.      0  -2138.      1  -1860.    
   ( 22,  1, 87)  ( 22,  1, 87)  ( 22,  1, 87)


 FLOW MODEL IS TRANSIENT
 FLOW MODEL CONTAINS CONSTANT-HEAD CELLS


 MAXIMUM STEPSIZE DURING WHICH ANY PARTICLE CANNOT MOVE MORE THAN ONE CELL
 =  13.24    (WHEN MIN. R.F.=1)  AT K=  17, I=   1, J=  90

 MAXIMUM STEPSIZE WHICH MEETS STABILITY CRITERION OF THE ADVECTION TERM
 (FOR PURE FINITE-DIFFERENCE OPTION, MIXELM=0) 
 =  8.013    (WHEN MIN. R.F.=1)  AT K=  16, I=   1, J=  90


 TOTAL NUMBER OF POINT SOURCES/SINKS PRESENT IN THE FLOW MODEL =    30

 MAXIMUM STEPSIZE WHICH MEETS STABILITY CRITERION OF THE SINK & SOURCE TERM
 =  12.19    (WHEN MIN. R.F.=1)  AT K=  17, I=   1, J=  91

 MAXIMUM STEPSIZE WHICH MEETS STABILITY CRITERION OF THE DISPERSION TERM
 =  4.381    (WHEN MIN. R.F.=1)  AT K=  17, I=   1, J=  90
     1 CALLS TO GCG PACKAGE FOR TRANSPORT TIME STEP 540 IN FLOW TIME STEP   1 STRESS PERIOD   1
    10 TOTAL ITERATIONS
  MAXIMUM CONCENTRATION CHANGES FOR EACH ITERATION:
  MAX. CHANGE LAYER,ROW,COL MAX. CHANGE LAYER,ROW,COL MAX. CHANGE LAYER,ROW,COL MAX. CHANGE LAYER,ROW,COL MAX. CHANGE LAYER,ROW,COL
 ------------------------------------------------------------------------------------------------------------------------------------
   0.4872E-01 ( 20,  1, 87)  0.3356E-02 ( 19,  1, 87)  0.2203E-02 ( 18,  1, 87)  0.2174E-03 ( 16,  1, 88)  0.1444E-03 ( 17,  1, 89)
   0.2934E-04 ( 16,  1, 90)  0.1446E-05 ( 21,  1, 78)  0.5515E-05 ( 21,  1, 78)  0.1035E-05 ( 16,  1, 89)  0.1106E-06 ( 17,  1, 89)
     1 CALLS TO GCG PACKAGE FOR TRANSPORT TIME STEP 540 IN FLOW TIME STEP   1 STRESS PERIOD   1
     8 TOTAL ITERATIONS
  MAXIMUM CONCENTRATION CHANGES FOR EACH ITERATION:
  MAX. CHANGE LAYER,ROW,COL MAX. CHANGE LAYER,ROW,COL MAX. CHANGE LAYER,ROW,COL MAX. CHANGE LAYER,ROW,COL MAX. CHANGE LAYER,ROW,COL
 ------------------------------------------------------------------------------------------------------------------------------------
   0.5539E-01 ( 19,  1, 88)  0.3990E-02 ( 19,  1, 87)  0.2341E-02 ( 18,  1, 87)  0.2470E-03 ( 23,  1, 88)  0.1390E-03 ( 17,  1, 89)
   0.3755E-04 ( 16,  1, 90)  0.5450E-05 ( 17,  1, 90)  0.6172E-06 ( 16,  1, 89)



 >>>>>>>>>>>>>>>>>>>>>>>>>>>>>>>>>>>>>>>>>>>>>>>>>>>>>>>FOR COMPONENT NO. 01<<<<<<<<<<<<<<<<<<<<<<<<<<<<<<<<<<<<<<<<<<<<<<<<<<<<<<<


                                            -------------------------------------------
                                                      TRANSPORT STEP NO.  540
                                            -------------------------------------------

 TOTAL ELAPSED TIME SINCE BEGINNING OF SIMULATION =   27000.00    D   
 .....................................................................

                     CUMMULATIVE MASS BUDGETS AT END OF TRANSPORT STEP  540, TIME STEP    1, STRESS PERIOD    1
                     ------------------------------------------------------------------------------------------

                                                             IN                           OUT
                                                      ----------------             ----------------
                               CONSTANT CONCENTRATION:    0.000000                    0.000000    
                                        CONSTANT HEAD:   0.1068371E+10              -0.1068169E+10
                                                WELLS:    0.000000                    0.000000    
                                             RECHARGE:    0.000000                    0.000000    
                               1ST/0TH ORDER REACTION:    0.000000                    0.000000    
                                MASS STORAGE (SOLUTE):   0.1493986E+09              -0.1496010E+09
                            ---------------------------------------------------------------------------
                                              [TOTAL]:   0.1217771E+10 KG           -0.1217771E+10 KG  

                                                          NET (IN - OUT):   -197.1418    
                                                   DISCREPANCY (PERCENT):  -0.1618875E-04



 >>>>>>>>>>>>>>>>>>>>>>>>>>>>>>>>>>>>>>>>>>>>>>>>>>>>>>>FOR COMPONENT NO. 02<<<<<<<<<<<<<<<<<<<<<<<<<<<<<<<<<<<<<<<<<<<<<<<<<<<<<<<


                                            -------------------------------------------
                                                      TRANSPORT STEP NO.  540
                                            -------------------------------------------

 TOTAL ELAPSED TIME SINCE BEGINNING OF SIMULATION =   27000.00    D   
 .....................................................................

                     CUMMULATIVE MASS BUDGETS AT END OF TRANSPORT STEP  540, TIME STEP    1, STRESS PERIOD    1
                     ------------------------------------------------------------------------------------------

                                                             IN                           OUT
                                                      ----------------             ----------------
                               CONSTANT CONCENTRATION:    0.000000                    0.000000    
                                        CONSTANT HEAD:    0.000000                  -0.1704982E+12
                                                WELLS:    0.000000                    0.000000    
                                             RECHARGE:    0.000000                    0.000000    
                               1ST/0TH ORDER REACTION:   0.4468500E+12                0.000000    
                                MASS STORAGE (SOLUTE):   0.5550757E+11              -0.3318595E+12
                            ---------------------------------------------------------------------------
                                              [TOTAL]:   0.5023584E+12 KG           -0.5023585E+12 KG  

                                                          NET (IN - OUT):   -60128.72    
                                                   DISCREPANCY (PERCENT):  -0.1196929E-04
 
 SOLVING FOR HEAD 


     2 CALLS TO PCG ROUTINE FOR TIME STEP   1 IN STRESS PERIOD    1
     9 TOTAL ITERATIONS

 MAXIMUM HEAD CHANGE FOR EACH ITERATION (1 INDICATES THE FIRST INNER ITERATION):

    HEAD CHANGE    HEAD CHANGE    HEAD CHANGE    HEAD CHANGE    HEAD CHANGE 
   LAYER,ROW,COL  LAYER,ROW,COL  LAYER,ROW,COL  LAYER,ROW,COL  LAYER,ROW,COL
 ---------------------------------------------------------------------------
  1  0.1362E-01  0 -0.4100E-02  0 -0.2906E-02  0 -0.1146E-01  0  0.1119E-01
   ( 15,  1, 86)  ( 17,  1, 89)  (  8,  1, 12)  ( 11,  1, 35)  ( 11,  1, 35)
  0  0.2015E-02  0 -0.1051E-02  0 -0.5410E-03  1  0.5284E-03
   ( 11,  1, 50)  ( 11,  1, 52)  ( 11,  1, 49)  ( 11,  1, 49)

 MAXIMUM RESIDUAL FOR EACH ITERATION (1 INDICATES THE FIRST INNER ITERATION):

    RESIDUAL       RESIDUAL       RESIDUAL       RESIDUAL       RESIDUAL    
   LAYER,ROW,COL  LAYER,ROW,COL  LAYER,ROW,COL  LAYER,ROW,COL  LAYER,ROW,COL
 ---------------------------------------------------------------------------
  1  0.1372E+06  0 -0.9805E+05  0 -0.9694E+05  0 -0.3317E+05  0   5039.    
   ( 21,  1, 89)  ( 19,  1, 89)  ( 19,  1, 89)  ( 19,  1, 89)  ( 17,  1, 88)
  0   2764.      0   2520.      0   864.9      1   771.7    
   ( 22,  1, 87)  ( 22,  1, 87)  ( 22,  1, 87)  ( 22,  1, 87)


 FLOW MODEL IS TRANSIENT
 FLOW MODEL CONTAINS CONSTANT-HEAD CELLS


 MAXIMUM STEPSIZE DURING WHICH ANY PARTICLE CANNOT MOVE MORE THAN ONE CELL
 =  12.88    (WHEN MIN. R.F.=1)  AT K=  17, I=   1, J=  90

 MAXIMUM STEPSIZE WHICH MEETS STABILITY CRITERION OF THE ADVECTION TERM
 (FOR PURE FINITE-DIFFERENCE OPTION, MIXELM=0) 
 =  8.052    (WHEN MIN. R.F.=1)  AT K=  16, I=   1, J=  90


 TOTAL NUMBER OF POINT SOURCES/SINKS PRESENT IN THE FLOW MODEL =    30

 MAXIMUM STEPSIZE WHICH MEETS STABILITY CRITERION OF THE SINK & SOURCE TERM
 =  12.24    (WHEN MIN. R.F.=1)  AT K=  17, I=   1, J=  91

 MAXIMUM STEPSIZE WHICH MEETS STABILITY CRITERION OF THE DISPERSION TERM
 =  4.034    (WHEN MIN. R.F.=1)  AT K=  17, I=   1, J=  90
     1 CALLS TO GCG PACKAGE FOR TRANSPORT TIME STEP 541 IN FLOW TIME STEP   1 STRESS PERIOD   1
     8 TOTAL ITERATIONS
     1 CALLS TO GCG PACKAGE FOR TRANSPORT TIME STEP 541 IN FLOW TIME STEP   1 STRESS PERIOD   1
     8 TOTAL ITERATIONS
 
 SOLVING FOR HEAD 


     2 CALLS TO PCG ROUTINE FOR TIME STEP   1 IN STRESS PERIOD    1
     9 TOTAL ITERATIONS

 MAXIMUM HEAD CHANGE FOR EACH ITERATION (1 INDICATES THE FIRST INNER ITERATION):

    HEAD CHANGE    HEAD CHANGE    HEAD CHANGE    HEAD CHANGE    HEAD CHANGE 
   LAYER,ROW,COL  LAYER,ROW,COL  LAYER,ROW,COL  LAYER,ROW,COL  LAYER,ROW,COL
 ---------------------------------------------------------------------------
  1 -0.1360E-01  0  0.4009E-02  0  0.4357E-02  0  0.9000E-02  0 -0.8867E-02
   ( 15,  1, 86)  ( 17,  1, 89)  (  8,  1, 12)  (  8,  1, 52)  (  8,  1, 52)
  0  0.1318E-02  0  0.1054E-02  0  0.7891E-03  1 -0.8048E-03
   ( 11,  1, 68)  ( 11,  1, 58)  ( 11,  1, 49)  ( 11,  1, 70)

 MAXIMUM RESIDUAL FOR EACH ITERATION (1 INDICATES THE FIRST INNER ITERATION):

    RESIDUAL       RESIDUAL       RESIDUAL       RESIDUAL       RESIDUAL    
   LAYER,ROW,COL  LAYER,ROW,COL  LAYER,ROW,COL  LAYER,ROW,COL  LAYER,ROW,COL
 ---------------------------------------------------------------------------
  1 -0.1358E+06  0  0.9609E+05  0  0.9538E+05  0  0.3467E+05  0   5915.    
   ( 21,  1, 89)  ( 19,  1, 89)  ( 19,  1, 89)  ( 19,  1, 89)  ( 17,  1, 87)
  0  -2858.      0  -2351.      0  -751.0      1  -624.4    
   ( 22,  1, 87)  ( 22,  1, 87)  ( 22,  1, 87)  ( 22,  1, 87)


 FLOW MODEL IS TRANSIENT
 FLOW MODEL CONTAINS CONSTANT-HEAD CELLS


 MAXIMUM STEPSIZE DURING WHICH ANY PARTICLE CANNOT MOVE MORE THAN ONE CELL
 =  13.24    (WHEN MIN. R.F.=1)  AT K=  17, I=   1, J=  90

 MAXIMUM STEPSIZE WHICH MEETS STABILITY CRITERION OF THE ADVECTION TERM
 (FOR PURE FINITE-DIFFERENCE OPTION, MIXELM=0) 
 =  8.013    (WHEN MIN. R.F.=1)  AT K=  16, I=   1, J=  90


 TOTAL NUMBER OF POINT SOURCES/SINKS PRESENT IN THE FLOW MODEL =    30

 MAXIMUM STEPSIZE WHICH MEETS STABILITY CRITERION OF THE SINK & SOURCE TERM
 =  12.19    (WHEN MIN. R.F.=1)  AT K=  17, I=   1, J=  91

 MAXIMUM STEPSIZE WHICH MEETS STABILITY CRITERION OF THE DISPERSION TERM
 =  4.383    (WHEN MIN. R.F.=1)  AT K=  17, I=   1, J=  90
     1 CALLS TO GCG PACKAGE FOR TRANSPORT TIME STEP 542 IN FLOW TIME STEP   1 STRESS PERIOD   1
     9 TOTAL ITERATIONS
     1 CALLS TO GCG PACKAGE FOR TRANSPORT TIME STEP 542 IN FLOW TIME STEP   1 STRESS PERIOD   1
     8 TOTAL ITERATIONS
 
 SOLVING FOR HEAD 


     2 CALLS TO PCG ROUTINE FOR TIME STEP   1 IN STRESS PERIOD    1
     9 TOTAL ITERATIONS

 MAXIMUM HEAD CHANGE FOR EACH ITERATION (1 INDICATES THE FIRST INNER ITERATION):

    HEAD CHANGE    HEAD CHANGE    HEAD CHANGE    HEAD CHANGE    HEAD CHANGE 
   LAYER,ROW,COL  LAYER,ROW,COL  LAYER,ROW,COL  LAYER,ROW,COL  LAYER,ROW,COL
 ---------------------------------------------------------------------------
  1  0.1333E-01  0 -0.3720E-02  0 -0.5958E-02  0 -0.5066E-02  0  0.8299E-02
   ( 15,  1, 86)  ( 17,  1, 89)  ( 11,  1, 61)  (  8,  1, 12)  ( 11,  1, 61)
  0  0.1574E-02  0 -0.1059E-02  0 -0.5481E-03  1  0.5846E-03
   ( 11,  1, 50)  ( 11,  1, 65)  ( 11,  1, 49)  ( 11,  1, 66)

 MAXIMUM RESIDUAL FOR EACH ITERATION (1 INDICATES THE FIRST INNER ITERATION):

    RESIDUAL       RESIDUAL       RESIDUAL       RESIDUAL       RESIDUAL    
   LAYER,ROW,COL  LAYER,ROW,COL  LAYER,ROW,COL  LAYER,ROW,COL  LAYER,ROW,COL
 ---------------------------------------------------------------------------
  1  0.1349E+06  0 -0.9491E+05  0 -0.4216E+05  0 -0.2103E+05  0  -5012.    
   ( 21,  1, 89)  ( 19,  1, 89)  ( 19,  1, 89)  ( 19,  1, 89)  ( 17,  1, 87)
  0   2865.      0   2399.      0   872.1      1   749.8    
   ( 22,  1, 87)  ( 22,  1, 87)  ( 22,  1, 87)  ( 22,  1, 87)


 FLOW MODEL IS TRANSIENT
 FLOW MODEL CONTAINS CONSTANT-HEAD CELLS


 MAXIMUM STEPSIZE DURING WHICH ANY PARTICLE CANNOT MOVE MORE THAN ONE CELL
 =  12.85    (WHEN MIN. R.F.=1)  AT K=  17, I=   1, J=  90

 MAXIMUM STEPSIZE WHICH MEETS STABILITY CRITERION OF THE ADVECTION TERM
 (FOR PURE FINITE-DIFFERENCE OPTION, MIXELM=0) 
 =  8.035    (WHEN MIN. R.F.=1)  AT K=  16, I=   1, J=  90


 TOTAL NUMBER OF POINT SOURCES/SINKS PRESENT IN THE FLOW MODEL =    30

 MAXIMUM STEPSIZE WHICH MEETS STABILITY CRITERION OF THE SINK & SOURCE TERM
 =  12.20    (WHEN MIN. R.F.=1)  AT K=  17, I=   1, J=  91

 MAXIMUM STEPSIZE WHICH MEETS STABILITY CRITERION OF THE DISPERSION TERM
 =  4.027    (WHEN MIN. R.F.=1)  AT K=  17, I=   1, J=  90
     1 CALLS TO GCG PACKAGE FOR TRANSPORT TIME STEP 543 IN FLOW TIME STEP   1 STRESS PERIOD   1
     8 TOTAL ITERATIONS
     1 CALLS TO GCG PACKAGE FOR TRANSPORT TIME STEP 543 IN FLOW TIME STEP   1 STRESS PERIOD   1
     8 TOTAL ITERATIONS
 
 SOLVING FOR HEAD 


     2 CALLS TO PCG ROUTINE FOR TIME STEP   1 IN STRESS PERIOD    1
     9 TOTAL ITERATIONS

 MAXIMUM HEAD CHANGE FOR EACH ITERATION (1 INDICATES THE FIRST INNER ITERATION):

    HEAD CHANGE    HEAD CHANGE    HEAD CHANGE    HEAD CHANGE    HEAD CHANGE 
   LAYER,ROW,COL  LAYER,ROW,COL  LAYER,ROW,COL  LAYER,ROW,COL  LAYER,ROW,COL
 ---------------------------------------------------------------------------
  1 -0.1348E-01  0  0.3741E-02  0  0.3312E-02  0  0.9255E-02  0 -0.8996E-02
   ( 15,  1, 86)  ( 17,  1, 89)  (  8,  1, 12)  (  7,  1, 53)  (  8,  1, 53)
  0  0.2149E-02  0  0.1052E-02  0  0.8264E-03  1 -0.9770E-03
   ( 11,  1, 65)  ( 11,  1, 70)  ( 11,  1, 70)  ( 11,  1, 70)

 MAXIMUM RESIDUAL FOR EACH ITERATION (1 INDICATES THE FIRST INNER ITERATION):

    RESIDUAL       RESIDUAL       RESIDUAL       RESIDUAL       RESIDUAL    
   LAYER,ROW,COL  LAYER,ROW,COL  LAYER,ROW,COL  LAYER,ROW,COL  LAYER,ROW,COL
 ---------------------------------------------------------------------------
  1 -0.1346E+06  0  0.9484E+05  0  0.9393E+05  0  0.3805E+05  0   6002.    
   ( 21,  1, 89)  ( 19,  1, 89)  ( 19,  1, 89)  ( 19,  1, 89)  ( 17,  1, 87)
  0  -2816.      0  -2498.      0  -876.2      1  -754.7    
   ( 22,  1, 87)  ( 22,  1, 87)  ( 22,  1, 87)  ( 22,  1, 87)


 FLOW MODEL IS TRANSIENT
 FLOW MODEL CONTAINS CONSTANT-HEAD CELLS


 MAXIMUM STEPSIZE DURING WHICH ANY PARTICLE CANNOT MOVE MORE THAN ONE CELL
 =  13.21    (WHEN MIN. R.F.=1)  AT K=  17, I=   1, J=  90

 MAXIMUM STEPSIZE WHICH MEETS STABILITY CRITERION OF THE ADVECTION TERM
 (FOR PURE FINITE-DIFFERENCE OPTION, MIXELM=0) 
 =  8.002    (WHEN MIN. R.F.=1)  AT K=  16, I=   1, J=  90


 TOTAL NUMBER OF POINT SOURCES/SINKS PRESENT IN THE FLOW MODEL =    30

 MAXIMUM STEPSIZE WHICH MEETS STABILITY CRITERION OF THE SINK & SOURCE TERM
 =  12.16    (WHEN MIN. R.F.=1)  AT K=  17, I=   1, J=  91

 MAXIMUM STEPSIZE WHICH MEETS STABILITY CRITERION OF THE DISPERSION TERM
 =  4.361    (WHEN MIN. R.F.=1)  AT K=  17, I=   1, J=  90
     1 CALLS TO GCG PACKAGE FOR TRANSPORT TIME STEP 544 IN FLOW TIME STEP   1 STRESS PERIOD   1
     7 TOTAL ITERATIONS
     1 CALLS TO GCG PACKAGE FOR TRANSPORT TIME STEP 544 IN FLOW TIME STEP   1 STRESS PERIOD   1
     8 TOTAL ITERATIONS
 
 SOLVING FOR HEAD 


     2 CALLS TO PCG ROUTINE FOR TIME STEP   1 IN STRESS PERIOD    1
     9 TOTAL ITERATIONS

 MAXIMUM HEAD CHANGE FOR EACH ITERATION (1 INDICATES THE FIRST INNER ITERATION):

    HEAD CHANGE    HEAD CHANGE    HEAD CHANGE    HEAD CHANGE    HEAD CHANGE 
   LAYER,ROW,COL  LAYER,ROW,COL  LAYER,ROW,COL  LAYER,ROW,COL  LAYER,ROW,COL
 ---------------------------------------------------------------------------
  1  0.1349E-01  0 -0.3702E-02  0 -0.2469E-02  0  0.9506E-02  0 -0.1002E-01
   ( 15,  1, 86)  ( 17,  1, 89)  (  8,  1, 12)  ( 11,  1, 50)  ( 11,  1, 50)
  0  0.1739E-02  0 -0.1126E-02  0 -0.6363E-03  1  0.5525E-03
   ( 11,  1, 52)  ( 11,  1, 64)  ( 11,  1, 49)  ( 11,  1, 65)

 MAXIMUM RESIDUAL FOR EACH ITERATION (1 INDICATES THE FIRST INNER ITERATION):

    RESIDUAL       RESIDUAL       RESIDUAL       RESIDUAL       RESIDUAL    
   LAYER,ROW,COL  LAYER,ROW,COL  LAYER,ROW,COL  LAYER,ROW,COL  LAYER,ROW,COL
 ---------------------------------------------------------------------------
  1  0.1317E+06  0 -0.9215E+05  0 -0.8958E+05  0 -0.2429E+05  0  -5190.    
   ( 21,  1, 89)  ( 19,  1, 89)  ( 19,  1, 89)  ( 19,  1, 89)  ( 17,  1, 87)
  0   2879.      0   2481.      0   936.7      1   820.5    
   ( 22,  1, 87)  ( 22,  1, 87)  ( 22,  1, 87)  ( 22,  1, 87)


 FLOW MODEL IS TRANSIENT
 FLOW MODEL CONTAINS CONSTANT-HEAD CELLS


 MAXIMUM STEPSIZE DURING WHICH ANY PARTICLE CANNOT MOVE MORE THAN ONE CELL
 =  12.86    (WHEN MIN. R.F.=1)  AT K=  17, I=   1, J=  90

 MAXIMUM STEPSIZE WHICH MEETS STABILITY CRITERION OF THE ADVECTION TERM
 (FOR PURE FINITE-DIFFERENCE OPTION, MIXELM=0) 
 =  8.035    (WHEN MIN. R.F.=1)  AT K=  16, I=   1, J=  90


 TOTAL NUMBER OF POINT SOURCES/SINKS PRESENT IN THE FLOW MODEL =    30

 MAXIMUM STEPSIZE WHICH MEETS STABILITY CRITERION OF THE SINK & SOURCE TERM
 =  12.20    (WHEN MIN. R.F.=1)  AT K=  17, I=   1, J=  91

 MAXIMUM STEPSIZE WHICH MEETS STABILITY CRITERION OF THE DISPERSION TERM
 =  4.033    (WHEN MIN. R.F.=1)  AT K=  17, I=   1, J=  90
     1 CALLS TO GCG PACKAGE FOR TRANSPORT TIME STEP 545 IN FLOW TIME STEP   1 STRESS PERIOD   1
     8 TOTAL ITERATIONS
  MAXIMUM CONCENTRATION CHANGES FOR EACH ITERATION:
  MAX. CHANGE LAYER,ROW,COL MAX. CHANGE LAYER,ROW,COL MAX. CHANGE LAYER,ROW,COL MAX. CHANGE LAYER,ROW,COL MAX. CHANGE LAYER,ROW,COL
 ------------------------------------------------------------------------------------------------------------------------------------
   0.5250E-01 ( 20,  1, 87)  0.4187E-02 ( 19,  1, 89)  0.2139E-02 ( 18,  1, 86)  0.4756E-03 ( 20,  1, 89)  0.9551E-04 ( 16,  1, 89)
   0.1978E-04 ( 20,  1, 89)  0.1774E-04 ( 16,  1, 90)  0.7475E-06 ( 17,  1, 90)
     1 CALLS TO GCG PACKAGE FOR TRANSPORT TIME STEP 545 IN FLOW TIME STEP   1 STRESS PERIOD   1
     8 TOTAL ITERATIONS
  MAXIMUM CONCENTRATION CHANGES FOR EACH ITERATION:
  MAX. CHANGE LAYER,ROW,COL MAX. CHANGE LAYER,ROW,COL MAX. CHANGE LAYER,ROW,COL MAX. CHANGE LAYER,ROW,COL MAX. CHANGE LAYER,ROW,COL
 ------------------------------------------------------------------------------------------------------------------------------------
   0.5977E-01 ( 20,  1, 87)  0.4868E-02 ( 19,  1, 89)  0.2102E-02 ( 18,  1, 86)  0.4016E-03 ( 20,  1, 89)  0.1110E-03 ( 16,  1, 89)
   0.2057E-04 ( 23,  1, 87)  0.1534E-04 ( 16,  1, 90)  0.8701E-06 ( 17,  1, 90)
 
 SOLVING FOR HEAD 


     2 CALLS TO PCG ROUTINE FOR TIME STEP   1 IN STRESS PERIOD    1
     9 TOTAL ITERATIONS

 MAXIMUM HEAD CHANGE FOR EACH ITERATION (1 INDICATES THE FIRST INNER ITERATION):

    HEAD CHANGE    HEAD CHANGE    HEAD CHANGE    HEAD CHANGE    HEAD CHANGE 
   LAYER,ROW,COL  LAYER,ROW,COL  LAYER,ROW,COL  LAYER,ROW,COL  LAYER,ROW,COL
 ---------------------------------------------------------------------------
  1 -0.1346E-01  0  0.3693E-02  0  0.2458E-02  0  0.8863E-02  0 -0.8800E-02
   ( 15,  1, 86)  ( 17,  1, 89)  (  8,  1, 12)  (  7,  1, 53)  (  8,  1, 53)
  0  0.1207E-02  0  0.1168E-02  0  0.8449E-03  1 -0.9806E-03
   ( 11,  1, 65)  ( 11,  1, 59)  ( 11,  1, 51)  ( 11,  1, 70)

 MAXIMUM RESIDUAL FOR EACH ITERATION (1 INDICATES THE FIRST INNER ITERATION):

    RESIDUAL       RESIDUAL       RESIDUAL       RESIDUAL       RESIDUAL    
   LAYER,ROW,COL  LAYER,ROW,COL  LAYER,ROW,COL  LAYER,ROW,COL  LAYER,ROW,COL
 ---------------------------------------------------------------------------
  1 -0.1331E+06  0  0.9401E+05  0  0.9269E+05  0  0.3675E+05  0   5995.    
   ( 21,  1, 89)  ( 19,  1, 89)  ( 19,  1, 89)  ( 19,  1, 89)  ( 17,  1, 87)
  0  -2840.      0  -2431.      0  -879.5      1  -742.5    
   ( 22,  1, 87)  ( 22,  1, 87)  ( 22,  1, 87)  ( 22,  1, 87)


 FLOW MODEL IS TRANSIENT
 FLOW MODEL CONTAINS CONSTANT-HEAD CELLS


 MAXIMUM STEPSIZE DURING WHICH ANY PARTICLE CANNOT MOVE MORE THAN ONE CELL
 =  13.20    (WHEN MIN. R.F.=1)  AT K=  17, I=   1, J=  90

 MAXIMUM STEPSIZE WHICH MEETS STABILITY CRITERION OF THE ADVECTION TERM
 (FOR PURE FINITE-DIFFERENCE OPTION, MIXELM=0) 
 =  7.997    (WHEN MIN. R.F.=1)  AT K=  16, I=   1, J=  90


 TOTAL NUMBER OF POINT SOURCES/SINKS PRESENT IN THE FLOW MODEL =    30

 MAXIMUM STEPSIZE WHICH MEETS STABILITY CRITERION OF THE SINK & SOURCE TERM
 =  12.15    (WHEN MIN. R.F.=1)  AT K=  17, I=   1, J=  91

 MAXIMUM STEPSIZE WHICH MEETS STABILITY CRITERION OF THE DISPERSION TERM
 =  4.353    (WHEN MIN. R.F.=1)  AT K=  17, I=   1, J=  90
     1 CALLS TO GCG PACKAGE FOR TRANSPORT TIME STEP 546 IN FLOW TIME STEP   1 STRESS PERIOD   1
     9 TOTAL ITERATIONS
     1 CALLS TO GCG PACKAGE FOR TRANSPORT TIME STEP 546 IN FLOW TIME STEP   1 STRESS PERIOD   1
     8 TOTAL ITERATIONS
 
 SOLVING FOR HEAD 


     2 CALLS TO PCG ROUTINE FOR TIME STEP   1 IN STRESS PERIOD    1
     9 TOTAL ITERATIONS

 MAXIMUM HEAD CHANGE FOR EACH ITERATION (1 INDICATES THE FIRST INNER ITERATION):

    HEAD CHANGE    HEAD CHANGE    HEAD CHANGE    HEAD CHANGE    HEAD CHANGE 
   LAYER,ROW,COL  LAYER,ROW,COL  LAYER,ROW,COL  LAYER,ROW,COL  LAYER,ROW,COL
 ---------------------------------------------------------------------------
  1  0.1353E-01  0 -0.3671E-02  0 -0.2342E-02  0  0.1129E-01  0 -0.1141E-01
   ( 15,  1, 86)  ( 17,  1, 89)  (  8,  1, 12)  ( 11,  1, 50)  ( 11,  1, 50)
  0  0.1717E-02  0 -0.1091E-02  0 -0.5835E-03  1  0.5154E-03
   ( 11,  1, 53)  ( 11,  1, 64)  ( 11,  1, 49)  ( 11,  1, 65)

 MAXIMUM RESIDUAL FOR EACH ITERATION (1 INDICATES THE FIRST INNER ITERATION):

    RESIDUAL       RESIDUAL       RESIDUAL       RESIDUAL       RESIDUAL    
   LAYER,ROW,COL  LAYER,ROW,COL  LAYER,ROW,COL  LAYER,ROW,COL  LAYER,ROW,COL
 ---------------------------------------------------------------------------
  1  0.1316E+06  0 -0.9209E+05  0 -0.9045E+05  0 -0.2535E+05  0  -5183.    
   ( 21,  1, 89)  ( 19,  1, 89)  ( 19,  1, 89)  ( 19,  1, 89)  ( 17,  1, 87)
  0   2870.      0   2451.      0   869.5      1   763.6    
   ( 22,  1, 87)  ( 22,  1, 87)  ( 22,  1, 87)  ( 22,  1, 87)


 FLOW MODEL IS TRANSIENT
 FLOW MODEL CONTAINS CONSTANT-HEAD CELLS


 MAXIMUM STEPSIZE DURING WHICH ANY PARTICLE CANNOT MOVE MORE THAN ONE CELL
 =  12.86    (WHEN MIN. R.F.=1)  AT K=  17, I=   1, J=  90

 MAXIMUM STEPSIZE WHICH MEETS STABILITY CRITERION OF THE ADVECTION TERM
 (FOR PURE FINITE-DIFFERENCE OPTION, MIXELM=0) 
 =  8.032    (WHEN MIN. R.F.=1)  AT K=  16, I=   1, J=  90


 TOTAL NUMBER OF POINT SOURCES/SINKS PRESENT IN THE FLOW MODEL =    30

 MAXIMUM STEPSIZE WHICH MEETS STABILITY CRITERION OF THE SINK & SOURCE TERM
 =  12.20    (WHEN MIN. R.F.=1)  AT K=  17, I=   1, J=  91

 MAXIMUM STEPSIZE WHICH MEETS STABILITY CRITERION OF THE DISPERSION TERM
 =  4.031    (WHEN MIN. R.F.=1)  AT K=  17, I=   1, J=  90
     1 CALLS TO GCG PACKAGE FOR TRANSPORT TIME STEP 547 IN FLOW TIME STEP   1 STRESS PERIOD   1
     8 TOTAL ITERATIONS
     1 CALLS TO GCG PACKAGE FOR TRANSPORT TIME STEP 547 IN FLOW TIME STEP   1 STRESS PERIOD   1
     8 TOTAL ITERATIONS
 
 SOLVING FOR HEAD 


     3 CALLS TO PCG ROUTINE FOR TIME STEP   1 IN STRESS PERIOD    1
    11 TOTAL ITERATIONS

 MAXIMUM HEAD CHANGE FOR EACH ITERATION (1 INDICATES THE FIRST INNER ITERATION):

    HEAD CHANGE    HEAD CHANGE    HEAD CHANGE    HEAD CHANGE    HEAD CHANGE 
   LAYER,ROW,COL  LAYER,ROW,COL  LAYER,ROW,COL  LAYER,ROW,COL  LAYER,ROW,COL
 ---------------------------------------------------------------------------
  1 -0.1341E-01  0  0.3640E-02  0  0.2311E-02  0  0.8480E-02  0 -0.8692E-02
   ( 15,  1, 86)  ( 17,  1, 89)  (  7,  1, 12)  ( 10,  1, 53)  (  8,  1, 52)
  0 -0.1305E-02  0  0.1403E-02  0  0.9928E-03  1 -0.1133E-02  0 -0.2381E-03
   ( 11,  1, 59)  ( 11,  1, 59)  ( 11,  1, 70)  ( 11,  1, 70)  ( 11,  1, 56)
  1  0.7015E-04
   ( 11,  1, 60)

 MAXIMUM RESIDUAL FOR EACH ITERATION (1 INDICATES THE FIRST INNER ITERATION):

    RESIDUAL       RESIDUAL       RESIDUAL       RESIDUAL       RESIDUAL    
   LAYER,ROW,COL  LAYER,ROW,COL  LAYER,ROW,COL  LAYER,ROW,COL  LAYER,ROW,COL
 ---------------------------------------------------------------------------
  1 -0.1318E+06  0  0.9282E+05  0  0.9108E+05  0  0.3445E+05  0   5970.    
   ( 21,  1, 89)  ( 19,  1, 89)  ( 19,  1, 89)  ( 19,  1, 89)  ( 17,  1, 87)
  0  -2857.      0  -2459.      0  -891.0      1  -746.9      0  -602.8    
   ( 22,  1, 87)  ( 22,  1, 87)  ( 22,  1, 87)  ( 22,  1, 87)  ( 22,  1, 87)
  1  -560.1    
   ( 22,  1, 87)


 FLOW MODEL IS TRANSIENT
 FLOW MODEL CONTAINS CONSTANT-HEAD CELLS


 MAXIMUM STEPSIZE DURING WHICH ANY PARTICLE CANNOT MOVE MORE THAN ONE CELL
 =  13.20    (WHEN MIN. R.F.=1)  AT K=  17, I=   1, J=  90

 MAXIMUM STEPSIZE WHICH MEETS STABILITY CRITERION OF THE ADVECTION TERM
 (FOR PURE FINITE-DIFFERENCE OPTION, MIXELM=0) 
 =  7.997    (WHEN MIN. R.F.=1)  AT K=  16, I=   1, J=  90


 TOTAL NUMBER OF POINT SOURCES/SINKS PRESENT IN THE FLOW MODEL =    30

 MAXIMUM STEPSIZE WHICH MEETS STABILITY CRITERION OF THE SINK & SOURCE TERM
 =  12.16    (WHEN MIN. R.F.=1)  AT K=  17, I=   1, J=  91

 MAXIMUM STEPSIZE WHICH MEETS STABILITY CRITERION OF THE DISPERSION TERM
 =  4.349    (WHEN MIN. R.F.=1)  AT K=  17, I=   1, J=  90
     1 CALLS TO GCG PACKAGE FOR TRANSPORT TIME STEP 548 IN FLOW TIME STEP   1 STRESS PERIOD   1
     9 TOTAL ITERATIONS
     1 CALLS TO GCG PACKAGE FOR TRANSPORT TIME STEP 548 IN FLOW TIME STEP   1 STRESS PERIOD   1
     8 TOTAL ITERATIONS
 
 SOLVING FOR HEAD 


     2 CALLS TO PCG ROUTINE FOR TIME STEP   1 IN STRESS PERIOD    1
     6 TOTAL ITERATIONS

 MAXIMUM HEAD CHANGE FOR EACH ITERATION (1 INDICATES THE FIRST INNER ITERATION):

    HEAD CHANGE    HEAD CHANGE    HEAD CHANGE    HEAD CHANGE    HEAD CHANGE 
   LAYER,ROW,COL  LAYER,ROW,COL  LAYER,ROW,COL  LAYER,ROW,COL  LAYER,ROW,COL
 ---------------------------------------------------------------------------
  1  0.1350E-01  0 -0.1997E-01  0  0.1756E-01  0 -0.2269E-02  0  0.9714E-03
   ( 15,  1, 86)  (  8,  1, 12)  (  8,  1, 12)  ( 15,  1, 87)  (  9,  1, 51)
  1 -0.9290E-03
   ( 11,  1, 70)

 MAXIMUM RESIDUAL FOR EACH ITERATION (1 INDICATES THE FIRST INNER ITERATION):

    RESIDUAL       RESIDUAL       RESIDUAL       RESIDUAL       RESIDUAL    
   LAYER,ROW,COL  LAYER,ROW,COL  LAYER,ROW,COL  LAYER,ROW,COL  LAYER,ROW,COL
 ---------------------------------------------------------------------------
  1  0.1313E+06  0  0.9860E+05  0 -0.9078E+05  0 -0.1163E+05  0   3119.    
   ( 21,  1, 89)  ( 21,  1, 89)  ( 19,  1, 89)  ( 17,  1, 87)  ( 22,  1, 87)
  1   2773.    
   ( 22,  1, 87)


 FLOW MODEL IS TRANSIENT
 FLOW MODEL CONTAINS CONSTANT-HEAD CELLS


 MAXIMUM STEPSIZE DURING WHICH ANY PARTICLE CANNOT MOVE MORE THAN ONE CELL
 =  12.84    (WHEN MIN. R.F.=1)  AT K=  17, I=   1, J=  90

 MAXIMUM STEPSIZE WHICH MEETS STABILITY CRITERION OF THE ADVECTION TERM
 (FOR PURE FINITE-DIFFERENCE OPTION, MIXELM=0) 
 =  8.023    (WHEN MIN. R.F.=1)  AT K=  16, I=   1, J=  90


 TOTAL NUMBER OF POINT SOURCES/SINKS PRESENT IN THE FLOW MODEL =    30

 MAXIMUM STEPSIZE WHICH MEETS STABILITY CRITERION OF THE SINK & SOURCE TERM
 =  12.19    (WHEN MIN. R.F.=1)  AT K=  17, I=   1, J=  91

 MAXIMUM STEPSIZE WHICH MEETS STABILITY CRITERION OF THE DISPERSION TERM
 =  4.025    (WHEN MIN. R.F.=1)  AT K=  17, I=   1, J=  90
     1 CALLS TO GCG PACKAGE FOR TRANSPORT TIME STEP 549 IN FLOW TIME STEP   1 STRESS PERIOD   1
     8 TOTAL ITERATIONS
     1 CALLS TO GCG PACKAGE FOR TRANSPORT TIME STEP 549 IN FLOW TIME STEP   1 STRESS PERIOD   1
     8 TOTAL ITERATIONS
 
 SOLVING FOR HEAD 


     2 CALLS TO PCG ROUTINE FOR TIME STEP   1 IN STRESS PERIOD    1
     9 TOTAL ITERATIONS

 MAXIMUM HEAD CHANGE FOR EACH ITERATION (1 INDICATES THE FIRST INNER ITERATION):

    HEAD CHANGE    HEAD CHANGE    HEAD CHANGE    HEAD CHANGE    HEAD CHANGE 
   LAYER,ROW,COL  LAYER,ROW,COL  LAYER,ROW,COL  LAYER,ROW,COL  LAYER,ROW,COL
 ---------------------------------------------------------------------------
  1 -0.1382E-01  0 -0.8186E-02  0  0.4516E-02  0  0.9143E-02  0 -0.5675E-02
   ( 15,  1, 86)  (  8,  1, 50)  (  7,  1, 12)  (  8,  1, 51)  (  8,  1, 50)
  0 -0.2601E-02  0  0.1530E-02  0  0.7477E-03  1 -0.7352E-03
   ( 11,  1, 57)  ( 11,  1, 58)  ( 11,  1, 70)  ( 11,  1, 70)

 MAXIMUM RESIDUAL FOR EACH ITERATION (1 INDICATES THE FIRST INNER ITERATION):

    RESIDUAL       RESIDUAL       RESIDUAL       RESIDUAL       RESIDUAL    
   LAYER,ROW,COL  LAYER,ROW,COL  LAYER,ROW,COL  LAYER,ROW,COL  LAYER,ROW,COL
 ---------------------------------------------------------------------------
  1 -0.1353E+06  0  0.9575E+05  0  0.9508E+05  0  0.7911E+05  0   5818.    
   ( 21,  1, 89)  ( 19,  1, 89)  ( 19,  1, 89)  ( 19,  1, 89)  ( 17,  1, 87)
  0  -2790.      0  -2593.      0  -923.9      1  -815.4    
   ( 22,  1, 87)  ( 22,  1, 87)  ( 22,  1, 87)  ( 22,  1, 87)


 FLOW MODEL IS TRANSIENT
 FLOW MODEL CONTAINS CONSTANT-HEAD CELLS


 MAXIMUM STEPSIZE DURING WHICH ANY PARTICLE CANNOT MOVE MORE THAN ONE CELL
 =  13.11    (WHEN MIN. R.F.=1)  AT K=  17, I=   1, J=  90

 MAXIMUM STEPSIZE WHICH MEETS STABILITY CRITERION OF THE ADVECTION TERM
 (FOR PURE FINITE-DIFFERENCE OPTION, MIXELM=0) 
 =  7.960    (WHEN MIN. R.F.=1)  AT K=  16, I=   1, J=  90


 TOTAL NUMBER OF POINT SOURCES/SINKS PRESENT IN THE FLOW MODEL =    30

 MAXIMUM STEPSIZE WHICH MEETS STABILITY CRITERION OF THE SINK & SOURCE TERM
 =  12.05    (WHEN MIN. R.F.=1)  AT K=  17, I=   1, J=  91

 MAXIMUM STEPSIZE WHICH MEETS STABILITY CRITERION OF THE DISPERSION TERM
 =  4.317    (WHEN MIN. R.F.=1)  AT K=  17, I=   1, J=  90
     1 CALLS TO GCG PACKAGE FOR TRANSPORT TIME STEP 550 IN FLOW TIME STEP   1 STRESS PERIOD   1
     9 TOTAL ITERATIONS
  MAXIMUM CONCENTRATION CHANGES FOR EACH ITERATION:
  MAX. CHANGE LAYER,ROW,COL MAX. CHANGE LAYER,ROW,COL MAX. CHANGE LAYER,ROW,COL MAX. CHANGE LAYER,ROW,COL MAX. CHANGE LAYER,ROW,COL
 ------------------------------------------------------------------------------------------------------------------------------------
   0.4890E-01 ( 20,  1, 87)  0.3257E-02 ( 19,  1, 87)  0.2124E-02 ( 18,  1, 87)  0.2104E-03 ( 16,  1, 88)  0.1421E-03 ( 17,  1, 89)
   0.2707E-04 ( 16,  1, 90)  0.3308E-05 ( 21,  1, 78)  0.1363E-05 ( 15,  1, 89)  0.9887E-06 ( 16,  1, 89)
     1 CALLS TO GCG PACKAGE FOR TRANSPORT TIME STEP 550 IN FLOW TIME STEP   1 STRESS PERIOD   1
     8 TOTAL ITERATIONS
  MAXIMUM CONCENTRATION CHANGES FOR EACH ITERATION:
  MAX. CHANGE LAYER,ROW,COL MAX. CHANGE LAYER,ROW,COL MAX. CHANGE LAYER,ROW,COL MAX. CHANGE LAYER,ROW,COL MAX. CHANGE LAYER,ROW,COL
 ------------------------------------------------------------------------------------------------------------------------------------
   0.5587E-01 ( 20,  1, 87)  0.3866E-02 ( 19,  1, 87)  0.2251E-02 ( 18,  1, 87)  0.2505E-03 ( 23,  1, 88)  0.1377E-03 ( 17,  1, 89)
   0.3459E-04 ( 16,  1, 90)  0.5135E-05 ( 17,  1, 90)  0.5804E-06 ( 16,  1, 89)



 >>>>>>>>>>>>>>>>>>>>>>>>>>>>>>>>>>>>>>>>>>>>>>>>>>>>>>>FOR COMPONENT NO. 01<<<<<<<<<<<<<<<<<<<<<<<<<<<<<<<<<<<<<<<<<<<<<<<<<<<<<<<


                                            -------------------------------------------
                                                      TRANSPORT STEP NO.  550
                                            -------------------------------------------

 TOTAL ELAPSED TIME SINCE BEGINNING OF SIMULATION =   27500.00    D   
 .....................................................................

                     CUMMULATIVE MASS BUDGETS AT END OF TRANSPORT STEP  550, TIME STEP    1, STRESS PERIOD    1
                     ------------------------------------------------------------------------------------------

                                                             IN                           OUT
                                                      ----------------             ----------------
                               CONSTANT CONCENTRATION:    0.000000                    0.000000    
                                        CONSTANT HEAD:   0.1088162E+10              -0.1087958E+10
                                                WELLS:    0.000000                    0.000000    
                                             RECHARGE:    0.000000                    0.000000    
                               1ST/0TH ORDER REACTION:    0.000000                    0.000000    
                                MASS STORAGE (SOLUTE):   0.1521557E+09              -0.1523601E+09
                            ---------------------------------------------------------------------------
                                              [TOTAL]:   0.1240319E+10 KG           -0.1240319E+10 KG  

                                                          NET (IN - OUT):   -201.0028    
                                                   DISCREPANCY (PERCENT):  -0.1620573E-04



 >>>>>>>>>>>>>>>>>>>>>>>>>>>>>>>>>>>>>>>>>>>>>>>>>>>>>>>FOR COMPONENT NO. 02<<<<<<<<<<<<<<<<<<<<<<<<<<<<<<<<<<<<<<<<<<<<<<<<<<<<<<<


                                            -------------------------------------------
                                                      TRANSPORT STEP NO.  550
                                            -------------------------------------------

 TOTAL ELAPSED TIME SINCE BEGINNING OF SIMULATION =   27500.00    D   
 .....................................................................

                     CUMMULATIVE MASS BUDGETS AT END OF TRANSPORT STEP  550, TIME STEP    1, STRESS PERIOD    1
                     ------------------------------------------------------------------------------------------

                                                             IN                           OUT
                                                      ----------------             ----------------
                               CONSTANT CONCENTRATION:    0.000000                    0.000000    
                                        CONSTANT HEAD:    0.000000                  -0.1758473E+12
                                                WELLS:    0.000000                    0.000000    
                                             RECHARGE:    0.000000                    0.000000    
                               1ST/0TH ORDER REACTION:   0.4551250E+12                0.000000    
                                MASS STORAGE (SOLUTE):   0.5766353E+11              -0.3369413E+12
                            ---------------------------------------------------------------------------
                                              [TOTAL]:   0.5127894E+12 KG           -0.5127894E+12 KG  

                                                          NET (IN - OUT):   -61830.85    
                                                   DISCREPANCY (PERCENT):  -0.1205775E-04
 
 SOLVING FOR HEAD 


     2 CALLS TO PCG ROUTINE FOR TIME STEP   1 IN STRESS PERIOD    1
     9 TOTAL ITERATIONS

 MAXIMUM HEAD CHANGE FOR EACH ITERATION (1 INDICATES THE FIRST INNER ITERATION):

    HEAD CHANGE    HEAD CHANGE    HEAD CHANGE    HEAD CHANGE    HEAD CHANGE 
   LAYER,ROW,COL  LAYER,ROW,COL  LAYER,ROW,COL  LAYER,ROW,COL  LAYER,ROW,COL
 ---------------------------------------------------------------------------
  1  0.1366E-01  0 -0.4138E-02  0 -0.3397E-02  0  0.8473E-02  0  0.9430E-02
   ( 15,  1, 86)  ( 17,  1, 89)  (  8,  1, 12)  ( 11,  1, 69)  ( 11,  1, 53)
  0 -0.1973E-02  0 -0.1062E-02  0 -0.6665E-03  1  0.5278E-03
   ( 11,  1, 56)  ( 11,  1, 64)  ( 11,  1, 70)  ( 11,  1, 70)

 MAXIMUM RESIDUAL FOR EACH ITERATION (1 INDICATES THE FIRST INNER ITERATION):

    RESIDUAL       RESIDUAL       RESIDUAL       RESIDUAL       RESIDUAL    
   LAYER,ROW,COL  LAYER,ROW,COL  LAYER,ROW,COL  LAYER,ROW,COL  LAYER,ROW,COL
 ---------------------------------------------------------------------------
  1  0.1339E+06  0 -0.9581E+05  0 -0.9491E+05  0 -0.2182E+05  0   5174.    
   ( 21,  1, 89)  ( 19,  1, 89)  ( 19,  1, 89)  ( 19,  1, 89)  ( 17,  1, 88)
  0   2730.      0   2283.      0   730.4      1   626.4    
   ( 22,  1, 87)  ( 22,  1, 87)  ( 22,  1, 87)  ( 22,  1, 87)


 FLOW MODEL IS TRANSIENT
 FLOW MODEL CONTAINS CONSTANT-HEAD CELLS


 MAXIMUM STEPSIZE DURING WHICH ANY PARTICLE CANNOT MOVE MORE THAN ONE CELL
 =  12.83    (WHEN MIN. R.F.=1)  AT K=  17, I=   1, J=  90

 MAXIMUM STEPSIZE WHICH MEETS STABILITY CRITERION OF THE ADVECTION TERM
 (FOR PURE FINITE-DIFFERENCE OPTION, MIXELM=0) 
 =  8.022    (WHEN MIN. R.F.=1)  AT K=  16, I=   1, J=  90


 TOTAL NUMBER OF POINT SOURCES/SINKS PRESENT IN THE FLOW MODEL =    30

 MAXIMUM STEPSIZE WHICH MEETS STABILITY CRITERION OF THE SINK & SOURCE TERM
 =  12.15    (WHEN MIN. R.F.=1)  AT K=  17, I=   1, J=  91

 MAXIMUM STEPSIZE WHICH MEETS STABILITY CRITERION OF THE DISPERSION TERM
 =  4.015    (WHEN MIN. R.F.=1)  AT K=  17, I=   1, J=  90
     1 CALLS TO GCG PACKAGE FOR TRANSPORT TIME STEP 551 IN FLOW TIME STEP   1 STRESS PERIOD   1
     8 TOTAL ITERATIONS
     1 CALLS TO GCG PACKAGE FOR TRANSPORT TIME STEP 551 IN FLOW TIME STEP   1 STRESS PERIOD   1
     8 TOTAL ITERATIONS
 
 SOLVING FOR HEAD 


     2 CALLS TO PCG ROUTINE FOR TIME STEP   1 IN STRESS PERIOD    1
     9 TOTAL ITERATIONS

 MAXIMUM HEAD CHANGE FOR EACH ITERATION (1 INDICATES THE FIRST INNER ITERATION):

    HEAD CHANGE    HEAD CHANGE    HEAD CHANGE    HEAD CHANGE    HEAD CHANGE 
   LAYER,ROW,COL  LAYER,ROW,COL  LAYER,ROW,COL  LAYER,ROW,COL  LAYER,ROW,COL
 ---------------------------------------------------------------------------
  1 -0.1328E-01  0  0.3588E-02  0  0.2384E-02  0 -0.8117E-02  0  0.7944E-02
   ( 15,  1, 86)  ( 17,  1, 89)  (  8,  1, 12)  (  9,  1, 48)  (  8,  1, 48)
  0 -0.1713E-02  0  0.1269E-02  0  0.9263E-03  1 -0.8716E-03
   ( 11,  1, 60)  ( 11,  1, 60)  ( 11,  1, 70)  ( 11,  1, 70)

 MAXIMUM RESIDUAL FOR EACH ITERATION (1 INDICATES THE FIRST INNER ITERATION):

    RESIDUAL       RESIDUAL       RESIDUAL       RESIDUAL       RESIDUAL    
   LAYER,ROW,COL  LAYER,ROW,COL  LAYER,ROW,COL  LAYER,ROW,COL  LAYER,ROW,COL
 ---------------------------------------------------------------------------
  1 -0.1274E+06  0  0.8851E+05  0  0.8706E+05  0  0.3701E+05  0   6307.    
   ( 21,  1, 89)  ( 19,  1, 89)  ( 19,  1, 89)  ( 19,  1, 89)  ( 17,  1, 87)
  0  -2876.      0  -2512.      0  -833.1      1  -697.7    
   ( 22,  1, 87)  ( 22,  1, 87)  ( 22,  1, 87)  ( 22,  1, 87)


 FLOW MODEL IS TRANSIENT
 FLOW MODEL CONTAINS CONSTANT-HEAD CELLS


 MAXIMUM STEPSIZE DURING WHICH ANY PARTICLE CANNOT MOVE MORE THAN ONE CELL
 =  13.21    (WHEN MIN. R.F.=1)  AT K=  17, I=   1, J=  90

 MAXIMUM STEPSIZE WHICH MEETS STABILITY CRITERION OF THE ADVECTION TERM
 (FOR PURE FINITE-DIFFERENCE OPTION, MIXELM=0) 
 =  8.001    (WHEN MIN. R.F.=1)  AT K=  16, I=   1, J=  90


 TOTAL NUMBER OF POINT SOURCES/SINKS PRESENT IN THE FLOW MODEL =    30

 MAXIMUM STEPSIZE WHICH MEETS STABILITY CRITERION OF THE SINK & SOURCE TERM
 =  12.16    (WHEN MIN. R.F.=1)  AT K=  17, I=   1, J=  91

 MAXIMUM STEPSIZE WHICH MEETS STABILITY CRITERION OF THE DISPERSION TERM
 =  4.362    (WHEN MIN. R.F.=1)  AT K=  17, I=   1, J=  90
     1 CALLS TO GCG PACKAGE FOR TRANSPORT TIME STEP 552 IN FLOW TIME STEP   1 STRESS PERIOD   1
     9 TOTAL ITERATIONS
     1 CALLS TO GCG PACKAGE FOR TRANSPORT TIME STEP 552 IN FLOW TIME STEP   1 STRESS PERIOD   1
     8 TOTAL ITERATIONS
 
 SOLVING FOR HEAD 


     2 CALLS TO PCG ROUTINE FOR TIME STEP   1 IN STRESS PERIOD    1
     8 TOTAL ITERATIONS

 MAXIMUM HEAD CHANGE FOR EACH ITERATION (1 INDICATES THE FIRST INNER ITERATION):

    HEAD CHANGE    HEAD CHANGE    HEAD CHANGE    HEAD CHANGE    HEAD CHANGE 
   LAYER,ROW,COL  LAYER,ROW,COL  LAYER,ROW,COL  LAYER,ROW,COL  LAYER,ROW,COL
 ---------------------------------------------------------------------------
  1  0.1343E-01  0 -0.3690E-02  0 -0.2337E-02  0  0.1118E-01  0 -0.1164E-01
   ( 15,  1, 86)  ( 17,  1, 89)  (  8,  1, 12)  ( 11,  1, 49)  ( 11,  1, 49)
  0 -0.2035E-02  0 -0.7658E-03  1 -0.4497E-03
   ( 11,  1, 59)  ( 11,  1, 54)  (  8,  1, 44)

 MAXIMUM RESIDUAL FOR EACH ITERATION (1 INDICATES THE FIRST INNER ITERATION):

    RESIDUAL       RESIDUAL       RESIDUAL       RESIDUAL       RESIDUAL    
   LAYER,ROW,COL  LAYER,ROW,COL  LAYER,ROW,COL  LAYER,ROW,COL  LAYER,ROW,COL
 ---------------------------------------------------------------------------
  1  0.1307E+06  0 -0.9115E+05  0 -0.8970E+05  0 -0.2104E+05  0  -4884.    
   ( 21,  1, 89)  ( 19,  1, 89)  ( 19,  1, 89)  ( 19,  1, 89)  ( 17,  1, 87)
  0   2869.      0   2517.      1   2109.    
   ( 22,  1, 87)  ( 22,  1, 87)  ( 22,  1, 87)


 FLOW MODEL IS TRANSIENT
 FLOW MODEL CONTAINS CONSTANT-HEAD CELLS


 MAXIMUM STEPSIZE DURING WHICH ANY PARTICLE CANNOT MOVE MORE THAN ONE CELL
 =  12.85    (WHEN MIN. R.F.=1)  AT K=  17, I=   1, J=  90

 MAXIMUM STEPSIZE WHICH MEETS STABILITY CRITERION OF THE ADVECTION TERM
 (FOR PURE FINITE-DIFFERENCE OPTION, MIXELM=0) 
 =  8.028    (WHEN MIN. R.F.=1)  AT K=  16, I=   1, J=  90


 TOTAL NUMBER OF POINT SOURCES/SINKS PRESENT IN THE FLOW MODEL =    30

 MAXIMUM STEPSIZE WHICH MEETS STABILITY CRITERION OF THE SINK & SOURCE TERM
 =  12.20    (WHEN MIN. R.F.=1)  AT K=  17, I=   1, J=  91

 MAXIMUM STEPSIZE WHICH MEETS STABILITY CRITERION OF THE DISPERSION TERM
 =  4.031    (WHEN MIN. R.F.=1)  AT K=  17, I=   1, J=  90
     1 CALLS TO GCG PACKAGE FOR TRANSPORT TIME STEP 553 IN FLOW TIME STEP   1 STRESS PERIOD   1
     8 TOTAL ITERATIONS
     1 CALLS TO GCG PACKAGE FOR TRANSPORT TIME STEP 553 IN FLOW TIME STEP   1 STRESS PERIOD   1
     8 TOTAL ITERATIONS
 
 SOLVING FOR HEAD 


     2 CALLS TO PCG ROUTINE FOR TIME STEP   1 IN STRESS PERIOD    1
     9 TOTAL ITERATIONS

 MAXIMUM HEAD CHANGE FOR EACH ITERATION (1 INDICATES THE FIRST INNER ITERATION):

    HEAD CHANGE    HEAD CHANGE    HEAD CHANGE    HEAD CHANGE    HEAD CHANGE 
   LAYER,ROW,COL  LAYER,ROW,COL  LAYER,ROW,COL  LAYER,ROW,COL  LAYER,ROW,COL
 ---------------------------------------------------------------------------
  1 -0.1374E-01  0 -0.6758E-02  0  0.3777E-02  0  0.8810E-02  0 -0.6569E-02
   ( 15,  1, 86)  (  6,  1, 43)  (  7,  1, 12)  (  8,  1, 45)  ( 10,  1, 51)
  0 -0.3436E-02  0  0.1510E-02  0  0.9700E-03  1 -0.7994E-03
   ( 11,  1, 49)  ( 11,  1, 49)  ( 11,  1, 59)  ( 11,  1, 59)

 MAXIMUM RESIDUAL FOR EACH ITERATION (1 INDICATES THE FIRST INNER ITERATION):

    RESIDUAL       RESIDUAL       RESIDUAL       RESIDUAL       RESIDUAL    
   LAYER,ROW,COL  LAYER,ROW,COL  LAYER,ROW,COL  LAYER,ROW,COL  LAYER,ROW,COL
 ---------------------------------------------------------------------------
  1 -0.1349E+06  0  0.9572E+05  0  0.9488E+05  0  0.7467E+05  0   6151.    
   ( 21,  1, 89)  ( 19,  1, 89)  ( 19,  1, 89)  ( 19,  1, 89)  ( 17,  1, 87)
  0  -2755.      0  -2572.      0  -1143.      1  -1011.    
   ( 22,  1, 87)  ( 22,  1, 87)  ( 22,  1, 87)  ( 22,  1, 87)


 FLOW MODEL IS TRANSIENT
 FLOW MODEL CONTAINS CONSTANT-HEAD CELLS


 MAXIMUM STEPSIZE DURING WHICH ANY PARTICLE CANNOT MOVE MORE THAN ONE CELL
 =  13.15    (WHEN MIN. R.F.=1)  AT K=  17, I=   1, J=  90

 MAXIMUM STEPSIZE WHICH MEETS STABILITY CRITERION OF THE ADVECTION TERM
 (FOR PURE FINITE-DIFFERENCE OPTION, MIXELM=0) 
 =  7.974    (WHEN MIN. R.F.=1)  AT K=  16, I=   1, J=  90


 TOTAL NUMBER OF POINT SOURCES/SINKS PRESENT IN THE FLOW MODEL =    30

 MAXIMUM STEPSIZE WHICH MEETS STABILITY CRITERION OF THE SINK & SOURCE TERM
 =  12.09    (WHEN MIN. R.F.=1)  AT K=  17, I=   1, J=  91

 MAXIMUM STEPSIZE WHICH MEETS STABILITY CRITERION OF THE DISPERSION TERM
 =  4.334    (WHEN MIN. R.F.=1)  AT K=  17, I=   1, J=  90
     1 CALLS TO GCG PACKAGE FOR TRANSPORT TIME STEP 554 IN FLOW TIME STEP   1 STRESS PERIOD   1
    10 TOTAL ITERATIONS
     1 CALLS TO GCG PACKAGE FOR TRANSPORT TIME STEP 554 IN FLOW TIME STEP   1 STRESS PERIOD   1
     8 TOTAL ITERATIONS
 
 SOLVING FOR HEAD 


     2 CALLS TO PCG ROUTINE FOR TIME STEP   1 IN STRESS PERIOD    1
     8 TOTAL ITERATIONS

 MAXIMUM HEAD CHANGE FOR EACH ITERATION (1 INDICATES THE FIRST INNER ITERATION):

    HEAD CHANGE    HEAD CHANGE    HEAD CHANGE    HEAD CHANGE    HEAD CHANGE 
   LAYER,ROW,COL  LAYER,ROW,COL  LAYER,ROW,COL  LAYER,ROW,COL  LAYER,ROW,COL
 ---------------------------------------------------------------------------
  1  0.1370E-01  0 -0.4063E-02  0 -0.3192E-02  0  0.1018E-01  0 -0.1089E-01
   ( 15,  1, 86)  ( 17,  1, 89)  (  8,  1, 12)  ( 11,  1, 59)  ( 11,  1, 59)
  0  0.1982E-02  0 -0.9750E-03  1  0.7109E-03
   ( 11,  1, 58)  ( 11,  1, 53)  ( 11,  1, 53)

 MAXIMUM RESIDUAL FOR EACH ITERATION (1 INDICATES THE FIRST INNER ITERATION):

    RESIDUAL       RESIDUAL       RESIDUAL       RESIDUAL       RESIDUAL    
   LAYER,ROW,COL  LAYER,ROW,COL  LAYER,ROW,COL  LAYER,ROW,COL  LAYER,ROW,COL
 ---------------------------------------------------------------------------
  1  0.1337E+06  0 -0.9512E+05  0 -0.9418E+05  0 -0.1920E+05  0   4753.    
   ( 21,  1, 89)  ( 19,  1, 89)  ( 19,  1, 89)  ( 19,  1, 89)  ( 17,  1, 88)
  0   2784.      0   1923.      1   1698.    
   ( 22,  1, 87)  ( 22,  1, 87)  ( 22,  1, 87)


 FLOW MODEL IS TRANSIENT
 FLOW MODEL CONTAINS CONSTANT-HEAD CELLS


 MAXIMUM STEPSIZE DURING WHICH ANY PARTICLE CANNOT MOVE MORE THAN ONE CELL
 =  12.84    (WHEN MIN. R.F.=1)  AT K=  17, I=   1, J=  90

 MAXIMUM STEPSIZE WHICH MEETS STABILITY CRITERION OF THE ADVECTION TERM
 (FOR PURE FINITE-DIFFERENCE OPTION, MIXELM=0) 
 =  8.026    (WHEN MIN. R.F.=1)  AT K=  16, I=   1, J=  90


 TOTAL NUMBER OF POINT SOURCES/SINKS PRESENT IN THE FLOW MODEL =    30

 MAXIMUM STEPSIZE WHICH MEETS STABILITY CRITERION OF THE SINK & SOURCE TERM
 =  12.18    (WHEN MIN. R.F.=1)  AT K=  17, I=   1, J=  91

 MAXIMUM STEPSIZE WHICH MEETS STABILITY CRITERION OF THE DISPERSION TERM
 =  4.020    (WHEN MIN. R.F.=1)  AT K=  17, I=   1, J=  90
     1 CALLS TO GCG PACKAGE FOR TRANSPORT TIME STEP 555 IN FLOW TIME STEP   1 STRESS PERIOD   1
     8 TOTAL ITERATIONS
  MAXIMUM CONCENTRATION CHANGES FOR EACH ITERATION:
  MAX. CHANGE LAYER,ROW,COL MAX. CHANGE LAYER,ROW,COL MAX. CHANGE LAYER,ROW,COL MAX. CHANGE LAYER,ROW,COL MAX. CHANGE LAYER,ROW,COL
 ------------------------------------------------------------------------------------------------------------------------------------
   0.5231E-01 ( 20,  1, 87)  0.4251E-02 ( 19,  1, 89)  0.2093E-02 ( 17,  1, 86)  0.4643E-03 ( 20,  1, 89)  0.9255E-04 ( 16,  1, 89)
   0.2089E-04 ( 20,  1, 89)  0.1937E-04 ( 16,  1, 90)  0.6638E-06 ( 17,  1, 90)
     1 CALLS TO GCG PACKAGE FOR TRANSPORT TIME STEP 555 IN FLOW TIME STEP   1 STRESS PERIOD   1
     8 TOTAL ITERATIONS
  MAXIMUM CONCENTRATION CHANGES FOR EACH ITERATION:
  MAX. CHANGE LAYER,ROW,COL MAX. CHANGE LAYER,ROW,COL MAX. CHANGE LAYER,ROW,COL MAX. CHANGE LAYER,ROW,COL MAX. CHANGE LAYER,ROW,COL
 ------------------------------------------------------------------------------------------------------------------------------------
   0.6002E-01 ( 20,  1, 87)  0.4978E-02 ( 19,  1, 89)  0.2059E-02 ( 18,  1, 86)  0.3891E-03 ( 20,  1, 89)  0.1129E-03 ( 16,  1, 89)
   0.2173E-04 ( 23,  1, 87)  0.1673E-04 ( 17,  1, 90)  0.8597E-06 ( 17,  1, 90)
 
 SOLVING FOR HEAD 


     2 CALLS TO PCG ROUTINE FOR TIME STEP   1 IN STRESS PERIOD    1
     9 TOTAL ITERATIONS

 MAXIMUM HEAD CHANGE FOR EACH ITERATION (1 INDICATES THE FIRST INNER ITERATION):

    HEAD CHANGE    HEAD CHANGE    HEAD CHANGE    HEAD CHANGE    HEAD CHANGE 
   LAYER,ROW,COL  LAYER,ROW,COL  LAYER,ROW,COL  LAYER,ROW,COL  LAYER,ROW,COL
 ---------------------------------------------------------------------------
  1 -0.1359E-01  0  0.3958E-02  0  0.3560E-02  0  0.9265E-02  0 -0.8490E-02
   ( 15,  1, 86)  ( 17,  1, 89)  (  8,  1, 12)  (  8,  1, 55)  (  7,  1, 54)
  0  0.1884E-02  0  0.1080E-02  0  0.7874E-03  1 -0.6091E-03
   ( 11,  1, 64)  ( 11,  1, 70)  ( 11,  1, 57)  ( 11,  1, 58)

 MAXIMUM RESIDUAL FOR EACH ITERATION (1 INDICATES THE FIRST INNER ITERATION):

    RESIDUAL       RESIDUAL       RESIDUAL       RESIDUAL       RESIDUAL    
   LAYER,ROW,COL  LAYER,ROW,COL  LAYER,ROW,COL  LAYER,ROW,COL  LAYER,ROW,COL
 ---------------------------------------------------------------------------
  1 -0.1314E+06  0  0.9221E+05  0  0.9139E+05  0  0.4954E+05  0   6098.    
   ( 21,  1, 89)  ( 19,  1, 89)  ( 19,  1, 89)  ( 19,  1, 89)  ( 17,  1, 87)
  0  -2821.      0  -2554.      0  -1027.      1  -912.8    
   ( 22,  1, 87)  ( 22,  1, 87)  ( 22,  1, 87)  ( 22,  1, 87)


 FLOW MODEL IS TRANSIENT
 FLOW MODEL CONTAINS CONSTANT-HEAD CELLS


 MAXIMUM STEPSIZE DURING WHICH ANY PARTICLE CANNOT MOVE MORE THAN ONE CELL
 =  13.19    (WHEN MIN. R.F.=1)  AT K=  17, I=   1, J=  90

 MAXIMUM STEPSIZE WHICH MEETS STABILITY CRITERION OF THE ADVECTION TERM
 (FOR PURE FINITE-DIFFERENCE OPTION, MIXELM=0) 
 =  7.988    (WHEN MIN. R.F.=1)  AT K=  16, I=   1, J=  90


 TOTAL NUMBER OF POINT SOURCES/SINKS PRESENT IN THE FLOW MODEL =    30

 MAXIMUM STEPSIZE WHICH MEETS STABILITY CRITERION OF THE SINK & SOURCE TERM
 =  12.13    (WHEN MIN. R.F.=1)  AT K=  17, I=   1, J=  91

 MAXIMUM STEPSIZE WHICH MEETS STABILITY CRITERION OF THE DISPERSION TERM
 =  4.355    (WHEN MIN. R.F.=1)  AT K=  17, I=   1, J=  90
     1 CALLS TO GCG PACKAGE FOR TRANSPORT TIME STEP 556 IN FLOW TIME STEP   1 STRESS PERIOD   1
     7 TOTAL ITERATIONS
     1 CALLS TO GCG PACKAGE FOR TRANSPORT TIME STEP 556 IN FLOW TIME STEP   1 STRESS PERIOD   1
     8 TOTAL ITERATIONS
 
 SOLVING FOR HEAD 


     2 CALLS TO PCG ROUTINE FOR TIME STEP   1 IN STRESS PERIOD    1
     9 TOTAL ITERATIONS

 MAXIMUM HEAD CHANGE FOR EACH ITERATION (1 INDICATES THE FIRST INNER ITERATION):

    HEAD CHANGE    HEAD CHANGE    HEAD CHANGE    HEAD CHANGE    HEAD CHANGE 
   LAYER,ROW,COL  LAYER,ROW,COL  LAYER,ROW,COL  LAYER,ROW,COL  LAYER,ROW,COL
 ---------------------------------------------------------------------------
  1  0.1356E-01  0 -0.3996E-02  0 -0.2778E-02  0  0.8839E-02  0 -0.9281E-02
   ( 15,  1, 86)  ( 17,  1, 89)  (  8,  1, 12)  ( 11,  1, 55)  ( 11,  1, 55)
  0  0.1752E-02  0 -0.1090E-02  0 -0.5058E-03  1  0.3734E-03
   ( 11,  1, 54)  ( 11,  1, 70)  ( 11,  1, 35)  ( 11,  1, 70)

 MAXIMUM RESIDUAL FOR EACH ITERATION (1 INDICATES THE FIRST INNER ITERATION):

    RESIDUAL       RESIDUAL       RESIDUAL       RESIDUAL       RESIDUAL    
   LAYER,ROW,COL  LAYER,ROW,COL  LAYER,ROW,COL  LAYER,ROW,COL  LAYER,ROW,COL
 ---------------------------------------------------------------------------
  1  0.1332E+06  0 -0.9419E+05  0 -0.9311E+05  0 -0.2288E+05  0  -5144.    
   ( 21,  1, 89)  ( 19,  1, 89)  ( 19,  1, 89)  ( 19,  1, 89)  ( 17,  1, 87)
  0   2804.      0   1948.      0   771.7      1   665.9    
   ( 22,  1, 87)  ( 22,  1, 87)  ( 22,  1, 87)  ( 22,  1, 87)


 FLOW MODEL IS TRANSIENT
 FLOW MODEL CONTAINS CONSTANT-HEAD CELLS


 MAXIMUM STEPSIZE DURING WHICH ANY PARTICLE CANNOT MOVE MORE THAN ONE CELL
 =  12.85    (WHEN MIN. R.F.=1)  AT K=  17, I=   1, J=  90

 MAXIMUM STEPSIZE WHICH MEETS STABILITY CRITERION OF THE ADVECTION TERM
 (FOR PURE FINITE-DIFFERENCE OPTION, MIXELM=0) 
 =  8.034    (WHEN MIN. R.F.=1)  AT K=  16, I=   1, J=  90


 TOTAL NUMBER OF POINT SOURCES/SINKS PRESENT IN THE FLOW MODEL =    30

 MAXIMUM STEPSIZE WHICH MEETS STABILITY CRITERION OF THE SINK & SOURCE TERM
 =  12.20    (WHEN MIN. R.F.=1)  AT K=  17, I=   1, J=  91

 MAXIMUM STEPSIZE WHICH MEETS STABILITY CRITERION OF THE DISPERSION TERM
 =  4.028    (WHEN MIN. R.F.=1)  AT K=  17, I=   1, J=  90
     1 CALLS TO GCG PACKAGE FOR TRANSPORT TIME STEP 557 IN FLOW TIME STEP   1 STRESS PERIOD   1
     8 TOTAL ITERATIONS
     1 CALLS TO GCG PACKAGE FOR TRANSPORT TIME STEP 557 IN FLOW TIME STEP   1 STRESS PERIOD   1
     8 TOTAL ITERATIONS
 
 SOLVING FOR HEAD 


     3 CALLS TO PCG ROUTINE FOR TIME STEP   1 IN STRESS PERIOD    1
     9 TOTAL ITERATIONS

 MAXIMUM HEAD CHANGE FOR EACH ITERATION (1 INDICATES THE FIRST INNER ITERATION):

    HEAD CHANGE    HEAD CHANGE    HEAD CHANGE    HEAD CHANGE    HEAD CHANGE 
   LAYER,ROW,COL  LAYER,ROW,COL  LAYER,ROW,COL  LAYER,ROW,COL  LAYER,ROW,COL
 ---------------------------------------------------------------------------
  1 -0.1341E-01  0  0.3696E-02  0  0.2411E-02  0  0.8606E-02  0 -0.8483E-02
   ( 15,  1, 86)  ( 17,  1, 89)  (  7,  1, 12)  (  9,  1, 53)  ( 10,  1, 53)
  0 -0.9782E-03  1  0.1303E-02  0  0.9065E-03  1 -0.4101E-03
   ( 11,  1, 35)  ( 11,  1, 70)  ( 11,  1, 55)  ( 11,  1, 58)

 MAXIMUM RESIDUAL FOR EACH ITERATION (1 INDICATES THE FIRST INNER ITERATION):

    RESIDUAL       RESIDUAL       RESIDUAL       RESIDUAL       RESIDUAL    
   LAYER,ROW,COL  LAYER,ROW,COL  LAYER,ROW,COL  LAYER,ROW,COL  LAYER,ROW,COL
 ---------------------------------------------------------------------------
  1 -0.1315E+06  0  0.9233E+05  0  0.9098E+05  0  0.4133E+05  0   6249.    
   ( 21,  1, 89)  ( 19,  1, 89)  ( 19,  1, 89)  ( 19,  1, 89)  ( 17,  1, 87)
  0  -2852.      1  -2237.      0  -951.7      1  -882.7    
   ( 22,  1, 87)  ( 22,  1, 87)  ( 22,  1, 87)  ( 22,  1, 87)


 FLOW MODEL IS TRANSIENT
 FLOW MODEL CONTAINS CONSTANT-HEAD CELLS


 MAXIMUM STEPSIZE DURING WHICH ANY PARTICLE CANNOT MOVE MORE THAN ONE CELL
 =  13.22    (WHEN MIN. R.F.=1)  AT K=  17, I=   1, J=  90

 MAXIMUM STEPSIZE WHICH MEETS STABILITY CRITERION OF THE ADVECTION TERM
 (FOR PURE FINITE-DIFFERENCE OPTION, MIXELM=0) 
 =  8.003    (WHEN MIN. R.F.=1)  AT K=  16, I=   1, J=  90


 TOTAL NUMBER OF POINT SOURCES/SINKS PRESENT IN THE FLOW MODEL =    30

 MAXIMUM STEPSIZE WHICH MEETS STABILITY CRITERION OF THE SINK & SOURCE TERM
 =  12.18    (WHEN MIN. R.F.=1)  AT K=  17, I=   1, J=  91

 MAXIMUM STEPSIZE WHICH MEETS STABILITY CRITERION OF THE DISPERSION TERM
 =  4.366    (WHEN MIN. R.F.=1)  AT K=  17, I=   1, J=  90
     1 CALLS TO GCG PACKAGE FOR TRANSPORT TIME STEP 558 IN FLOW TIME STEP   1 STRESS PERIOD   1
     9 TOTAL ITERATIONS
     1 CALLS TO GCG PACKAGE FOR TRANSPORT TIME STEP 558 IN FLOW TIME STEP   1 STRESS PERIOD   1
     8 TOTAL ITERATIONS
 
 SOLVING FOR HEAD 


     2 CALLS TO PCG ROUTINE FOR TIME STEP   1 IN STRESS PERIOD    1
     9 TOTAL ITERATIONS

 MAXIMUM HEAD CHANGE FOR EACH ITERATION (1 INDICATES THE FIRST INNER ITERATION):

    HEAD CHANGE    HEAD CHANGE    HEAD CHANGE    HEAD CHANGE    HEAD CHANGE 
   LAYER,ROW,COL  LAYER,ROW,COL  LAYER,ROW,COL  LAYER,ROW,COL  LAYER,ROW,COL
 ---------------------------------------------------------------------------
  1  0.1334E-01  0 -0.1741E-01  0  0.1028E-01  0 -0.3211E-02  0  0.3640E-02
   ( 15,  1, 86)  (  8,  1, 12)  (  8,  1, 12)  ( 11,  1, 70)  ( 11,  1, 69)
  0  0.1523E-02  0 -0.1864E-02  0  0.9492E-03  1  0.5381E-03
   (  7,  1, 45)  ( 11,  1, 69)  ( 11,  1, 68)  ( 11,  1, 54)

 MAXIMUM RESIDUAL FOR EACH ITERATION (1 INDICATES THE FIRST INNER ITERATION):

    RESIDUAL       RESIDUAL       RESIDUAL       RESIDUAL       RESIDUAL    
   LAYER,ROW,COL  LAYER,ROW,COL  LAYER,ROW,COL  LAYER,ROW,COL  LAYER,ROW,COL
 ---------------------------------------------------------------------------
  1  0.1335E+06  0  0.1240E+06  0 -0.9208E+05  0 -0.1243E+05  0   3212.    
   ( 21,  1, 89)  ( 21,  1, 89)  ( 19,  1, 89)  ( 17,  1, 87)  ( 22,  1, 87)
  0   2889.      0   1910.      0   793.2      1   694.7    
   ( 22,  1, 87)  ( 22,  1, 87)  ( 22,  1, 87)  ( 22,  1, 87)


 FLOW MODEL IS TRANSIENT
 FLOW MODEL CONTAINS CONSTANT-HEAD CELLS


 MAXIMUM STEPSIZE DURING WHICH ANY PARTICLE CANNOT MOVE MORE THAN ONE CELL
 =  12.87    (WHEN MIN. R.F.=1)  AT K=  17, I=   1, J=  90

 MAXIMUM STEPSIZE WHICH MEETS STABILITY CRITERION OF THE ADVECTION TERM
 (FOR PURE FINITE-DIFFERENCE OPTION, MIXELM=0) 
 =  8.037    (WHEN MIN. R.F.=1)  AT K=  16, I=   1, J=  90


 TOTAL NUMBER OF POINT SOURCES/SINKS PRESENT IN THE FLOW MODEL =    30

 MAXIMUM STEPSIZE WHICH MEETS STABILITY CRITERION OF THE SINK & SOURCE TERM
 =  12.21    (WHEN MIN. R.F.=1)  AT K=  17, I=   1, J=  91

 MAXIMUM STEPSIZE WHICH MEETS STABILITY CRITERION OF THE DISPERSION TERM
 =  4.041    (WHEN MIN. R.F.=1)  AT K=  17, I=   1, J=  90
     1 CALLS TO GCG PACKAGE FOR TRANSPORT TIME STEP 559 IN FLOW TIME STEP   1 STRESS PERIOD   1
     8 TOTAL ITERATIONS
     1 CALLS TO GCG PACKAGE FOR TRANSPORT TIME STEP 559 IN FLOW TIME STEP   1 STRESS PERIOD   1
     8 TOTAL ITERATIONS
 
 SOLVING FOR HEAD 


     2 CALLS TO PCG ROUTINE FOR TIME STEP   1 IN STRESS PERIOD    1
     8 TOTAL ITERATIONS

 MAXIMUM HEAD CHANGE FOR EACH ITERATION (1 INDICATES THE FIRST INNER ITERATION):

    HEAD CHANGE    HEAD CHANGE    HEAD CHANGE    HEAD CHANGE    HEAD CHANGE 
   LAYER,ROW,COL  LAYER,ROW,COL  LAYER,ROW,COL  LAYER,ROW,COL  LAYER,ROW,COL
 ---------------------------------------------------------------------------
  1 -0.1345E-01  0  0.3630E-02  0  0.2358E-02  0  0.9687E-02  0 -0.9618E-02
   ( 15,  1, 86)  ( 17,  1, 89)  (  8,  1, 12)  ( 11,  1, 68)  ( 11,  1, 67)
  0 -0.1312E-02  0  0.5947E-03  1  0.6402E-03
   ( 11,  1, 49)  ( 11,  1, 69)  ( 11,  1, 56)

 MAXIMUM RESIDUAL FOR EACH ITERATION (1 INDICATES THE FIRST INNER ITERATION):

    RESIDUAL       RESIDUAL       RESIDUAL       RESIDUAL       RESIDUAL    
   LAYER,ROW,COL  LAYER,ROW,COL  LAYER,ROW,COL  LAYER,ROW,COL  LAYER,ROW,COL
 ---------------------------------------------------------------------------
  1 -0.1348E+06  0  0.9520E+05  0  0.9309E+05  0  0.3065E+05  0   5823.    
   ( 21,  1, 89)  ( 19,  1, 89)  ( 19,  1, 89)  ( 19,  1, 89)  ( 17,  1, 87)
  0  -2818.      0  -2539.      1  -2048.    
   ( 22,  1, 87)  ( 22,  1, 87)  ( 22,  1, 87)


 FLOW MODEL IS TRANSIENT
 FLOW MODEL CONTAINS CONSTANT-HEAD CELLS


 MAXIMUM STEPSIZE DURING WHICH ANY PARTICLE CANNOT MOVE MORE THAN ONE CELL
 =  13.21    (WHEN MIN. R.F.=1)  AT K=  17, I=   1, J=  90

 MAXIMUM STEPSIZE WHICH MEETS STABILITY CRITERION OF THE ADVECTION TERM
 (FOR PURE FINITE-DIFFERENCE OPTION, MIXELM=0) 
 =  8.004    (WHEN MIN. R.F.=1)  AT K=  16, I=   1, J=  90


 TOTAL NUMBER OF POINT SOURCES/SINKS PRESENT IN THE FLOW MODEL =    30

 MAXIMUM STEPSIZE WHICH MEETS STABILITY CRITERION OF THE SINK & SOURCE TERM
 =  12.17    (WHEN MIN. R.F.=1)  AT K=  17, I=   1, J=  91

 MAXIMUM STEPSIZE WHICH MEETS STABILITY CRITERION OF THE DISPERSION TERM
 =  4.357    (WHEN MIN. R.F.=1)  AT K=  17, I=   1, J=  90
     1 CALLS TO GCG PACKAGE FOR TRANSPORT TIME STEP 560 IN FLOW TIME STEP   1 STRESS PERIOD   1
     8 TOTAL ITERATIONS
  MAXIMUM CONCENTRATION CHANGES FOR EACH ITERATION:
  MAX. CHANGE LAYER,ROW,COL MAX. CHANGE LAYER,ROW,COL MAX. CHANGE LAYER,ROW,COL MAX. CHANGE LAYER,ROW,COL MAX. CHANGE LAYER,ROW,COL
 ------------------------------------------------------------------------------------------------------------------------------------
   0.4895E-01 ( 20,  1, 87)  0.3343E-02 ( 19,  1, 87)  0.2173E-02 ( 18,  1, 87)  0.2171E-03 ( 16,  1, 88)  0.1462E-03 ( 16,  1, 89)
   0.2752E-04 ( 16,  1, 90)  0.3547E-05 ( 21,  1, 78)  0.2113E-06 ( 16,  1, 89)
     1 CALLS TO GCG PACKAGE FOR TRANSPORT TIME STEP 560 IN FLOW TIME STEP   1 STRESS PERIOD   1
     8 TOTAL ITERATIONS
  MAXIMUM CONCENTRATION CHANGES FOR EACH ITERATION:
  MAX. CHANGE LAYER,ROW,COL MAX. CHANGE LAYER,ROW,COL MAX. CHANGE LAYER,ROW,COL MAX. CHANGE LAYER,ROW,COL MAX. CHANGE LAYER,ROW,COL
 ------------------------------------------------------------------------------------------------------------------------------------
   0.5546E-01 ( 20,  1, 87)  0.3921E-02 ( 19,  1, 87)  0.2343E-02 ( 18,  1, 87)  0.2265E-03 ( 18,  1, 87)  0.1363E-03 ( 16,  1, 89)
   0.3641E-04 ( 16,  1, 90)  0.5526E-05 ( 17,  1, 90)  0.5759E-06 ( 16,  1, 89)



 >>>>>>>>>>>>>>>>>>>>>>>>>>>>>>>>>>>>>>>>>>>>>>>>>>>>>>>FOR COMPONENT NO. 01<<<<<<<<<<<<<<<<<<<<<<<<<<<<<<<<<<<<<<<<<<<<<<<<<<<<<<<


                                            -------------------------------------------
                                                      TRANSPORT STEP NO.  560
                                            -------------------------------------------

 TOTAL ELAPSED TIME SINCE BEGINNING OF SIMULATION =   28000.00    D   
 .....................................................................

                     CUMMULATIVE MASS BUDGETS AT END OF TRANSPORT STEP  560, TIME STEP    1, STRESS PERIOD    1
                     ------------------------------------------------------------------------------------------

                                                             IN                           OUT
                                                      ----------------             ----------------
                               CONSTANT CONCENTRATION:    0.000000                    0.000000    
                                        CONSTANT HEAD:   0.1107961E+10              -0.1107754E+10
                                                WELLS:    0.000000                    0.000000    
                                             RECHARGE:    0.000000                    0.000000    
                               1ST/0TH ORDER REACTION:    0.000000                    0.000000    
                                MASS STORAGE (SOLUTE):   0.1549123E+09              -0.1551191E+09
                            ---------------------------------------------------------------------------
                                              [TOTAL]:   0.1262874E+10 KG           -0.1262874E+10 KG  

                                                          NET (IN - OUT):   -210.9856    
                                                   DISCREPANCY (PERCENT):  -0.1670678E-04



 >>>>>>>>>>>>>>>>>>>>>>>>>>>>>>>>>>>>>>>>>>>>>>>>>>>>>>>FOR COMPONENT NO. 02<<<<<<<<<<<<<<<<<<<<<<<<<<<<<<<<<<<<<<<<<<<<<<<<<<<<<<<


                                            -------------------------------------------
                                                      TRANSPORT STEP NO.  560
                                            -------------------------------------------

 TOTAL ELAPSED TIME SINCE BEGINNING OF SIMULATION =   28000.00    D   
 .....................................................................

                     CUMMULATIVE MASS BUDGETS AT END OF TRANSPORT STEP  560, TIME STEP    1, STRESS PERIOD    1
                     ------------------------------------------------------------------------------------------

                                                             IN                           OUT
                                                      ----------------             ----------------
                               CONSTANT CONCENTRATION:    0.000000                    0.000000    
                                        CONSTANT HEAD:    0.000000                  -0.1812559E+12
                                                WELLS:    0.000000                    0.000000    
                                             RECHARGE:    0.000000                    0.000000    
                               1ST/0TH ORDER REACTION:   0.4634000E+12                0.000000    
                                MASS STORAGE (SOLUTE):   0.5985555E+11              -0.3419997E+12
                            ---------------------------------------------------------------------------
                                              [TOTAL]:   0.5232564E+12 KG           -0.5232565E+12 KG  

                                                          NET (IN - OUT):   -63178.79    
                                                   DISCREPANCY (PERCENT):  -0.1207415E-04
 
 SOLVING FOR HEAD 


     2 CALLS TO PCG ROUTINE FOR TIME STEP   1 IN STRESS PERIOD    1
     9 TOTAL ITERATIONS

 MAXIMUM HEAD CHANGE FOR EACH ITERATION (1 INDICATES THE FIRST INNER ITERATION):

    HEAD CHANGE    HEAD CHANGE    HEAD CHANGE    HEAD CHANGE    HEAD CHANGE 
   LAYER,ROW,COL  LAYER,ROW,COL  LAYER,ROW,COL  LAYER,ROW,COL  LAYER,ROW,COL
 ---------------------------------------------------------------------------
  1  0.1385E-01  0  0.7387E-02  0 -0.3673E-02  0 -0.9097E-02  0  0.6847E-02
   ( 15,  1, 86)  (  6,  1, 43)  (  7,  1, 12)  (  8,  1, 45)  (  7,  1, 45)
  0 -0.3515E-02  0 -0.1362E-02  0 -0.5764E-03  1  0.5021E-03
   ( 11,  1, 67)  ( 11,  1, 54)  ( 11,  1, 70)  ( 11,  1, 70)

 MAXIMUM RESIDUAL FOR EACH ITERATION (1 INDICATES THE FIRST INNER ITERATION):

    RESIDUAL       RESIDUAL       RESIDUAL       RESIDUAL       RESIDUAL    
   LAYER,ROW,COL  LAYER,ROW,COL  LAYER,ROW,COL  LAYER,ROW,COL  LAYER,ROW,COL
 ---------------------------------------------------------------------------
  1  0.1333E+06  0 -0.9417E+05  0 -0.9332E+05  0 -0.7482E+05  0  -5962.    
   ( 21,  1, 89)  ( 19,  1, 89)  ( 19,  1, 89)  ( 19,  1, 89)  ( 17,  1, 87)
  0   2922.      0   2664.      0   853.6      1   750.7    
   ( 17,  1, 88)  ( 22,  1, 87)  ( 22,  1, 87)  ( 22,  1, 87)


 FLOW MODEL IS TRANSIENT
 FLOW MODEL CONTAINS CONSTANT-HEAD CELLS


 MAXIMUM STEPSIZE DURING WHICH ANY PARTICLE CANNOT MOVE MORE THAN ONE CELL
 =  12.91    (WHEN MIN. R.F.=1)  AT K=  17, I=   1, J=  90

 MAXIMUM STEPSIZE WHICH MEETS STABILITY CRITERION OF THE ADVECTION TERM
 (FOR PURE FINITE-DIFFERENCE OPTION, MIXELM=0) 
 =  8.057    (WHEN MIN. R.F.=1)  AT K=  16, I=   1, J=  90


 TOTAL NUMBER OF POINT SOURCES/SINKS PRESENT IN THE FLOW MODEL =    30

 MAXIMUM STEPSIZE WHICH MEETS STABILITY CRITERION OF THE SINK & SOURCE TERM
 =  12.28    (WHEN MIN. R.F.=1)  AT K=  17, I=   1, J=  91

 MAXIMUM STEPSIZE WHICH MEETS STABILITY CRITERION OF THE DISPERSION TERM
 =  4.050    (WHEN MIN. R.F.=1)  AT K=  17, I=   1, J=  90
     1 CALLS TO GCG PACKAGE FOR TRANSPORT TIME STEP 561 IN FLOW TIME STEP   1 STRESS PERIOD   1
     8 TOTAL ITERATIONS
     1 CALLS TO GCG PACKAGE FOR TRANSPORT TIME STEP 561 IN FLOW TIME STEP   1 STRESS PERIOD   1
     8 TOTAL ITERATIONS
 
 SOLVING FOR HEAD 


     2 CALLS TO PCG ROUTINE FOR TIME STEP   1 IN STRESS PERIOD    1
     9 TOTAL ITERATIONS

 MAXIMUM HEAD CHANGE FOR EACH ITERATION (1 INDICATES THE FIRST INNER ITERATION):

    HEAD CHANGE    HEAD CHANGE    HEAD CHANGE    HEAD CHANGE    HEAD CHANGE 
   LAYER,ROW,COL  LAYER,ROW,COL  LAYER,ROW,COL  LAYER,ROW,COL  LAYER,ROW,COL
 ---------------------------------------------------------------------------
  1 -0.1357E-01  0  0.3936E-02  0  0.2905E-02  0  0.1178E-01  0 -0.1273E-01
   ( 15,  1, 86)  ( 17,  1, 89)  (  8,  1, 12)  ( 11,  1, 49)  ( 11,  1, 49)
  0  0.1833E-02  0  0.1295E-02  0  0.7448E-03  1 -0.4202E-03
   ( 11,  1, 50)  ( 11,  1, 65)  ( 11,  1, 55)  ( 11,  1, 65)

 MAXIMUM RESIDUAL FOR EACH ITERATION (1 INDICATES THE FIRST INNER ITERATION):

    RESIDUAL       RESIDUAL       RESIDUAL       RESIDUAL       RESIDUAL    
   LAYER,ROW,COL  LAYER,ROW,COL  LAYER,ROW,COL  LAYER,ROW,COL  LAYER,ROW,COL
 ---------------------------------------------------------------------------
  1 -0.1344E+06  0  0.9545E+05  0  0.9440E+05  0  0.2395E+05  0   4963.    
   ( 21,  1, 89)  ( 19,  1, 89)  ( 19,  1, 89)  ( 19,  1, 89)  ( 17,  1, 87)
  0  -2860.      0  -2282.      0  -808.0      1  -692.6    
   ( 22,  1, 87)  ( 22,  1, 87)  ( 22,  1, 87)  ( 22,  1, 87)


 FLOW MODEL IS TRANSIENT
 FLOW MODEL CONTAINS CONSTANT-HEAD CELLS


 MAXIMUM STEPSIZE DURING WHICH ANY PARTICLE CANNOT MOVE MORE THAN ONE CELL
 =  13.24    (WHEN MIN. R.F.=1)  AT K=  17, I=   1, J=  90

 MAXIMUM STEPSIZE WHICH MEETS STABILITY CRITERION OF THE ADVECTION TERM
 (FOR PURE FINITE-DIFFERENCE OPTION, MIXELM=0) 
 =  8.010    (WHEN MIN. R.F.=1)  AT K=  16, I=   1, J=  90


 TOTAL NUMBER OF POINT SOURCES/SINKS PRESENT IN THE FLOW MODEL =    30

 MAXIMUM STEPSIZE WHICH MEETS STABILITY CRITERION OF THE SINK & SOURCE TERM
 =  12.20    (WHEN MIN. R.F.=1)  AT K=  17, I=   1, J=  91

 MAXIMUM STEPSIZE WHICH MEETS STABILITY CRITERION OF THE DISPERSION TERM
 =  4.373    (WHEN MIN. R.F.=1)  AT K=  17, I=   1, J=  90
     1 CALLS TO GCG PACKAGE FOR TRANSPORT TIME STEP 562 IN FLOW TIME STEP   1 STRESS PERIOD   1
     7 TOTAL ITERATIONS
     1 CALLS TO GCG PACKAGE FOR TRANSPORT TIME STEP 562 IN FLOW TIME STEP   1 STRESS PERIOD   1
     8 TOTAL ITERATIONS
 
 SOLVING FOR HEAD 


     2 CALLS TO PCG ROUTINE FOR TIME STEP   1 IN STRESS PERIOD    1
     9 TOTAL ITERATIONS

 MAXIMUM HEAD CHANGE FOR EACH ITERATION (1 INDICATES THE FIRST INNER ITERATION):

    HEAD CHANGE    HEAD CHANGE    HEAD CHANGE    HEAD CHANGE    HEAD CHANGE 
   LAYER,ROW,COL  LAYER,ROW,COL  LAYER,ROW,COL  LAYER,ROW,COL  LAYER,ROW,COL
 ---------------------------------------------------------------------------
  1  0.1332E-01  0 -0.3642E-02  0 -0.2957E-02  0 -0.8360E-02  0  0.8340E-02
   ( 15,  1, 86)  ( 17,  1, 89)  (  7,  1, 12)  ( 11,  1, 69)  (  8,  1, 51)
  0  0.1723E-02  0 -0.1639E-02  0 -0.9933E-03  1  0.7715E-03
   ( 11,  1, 70)  ( 11,  1, 70)  ( 11,  1, 61)  ( 11,  1, 70)

 MAXIMUM RESIDUAL FOR EACH ITERATION (1 INDICATES THE FIRST INNER ITERATION):

    RESIDUAL       RESIDUAL       RESIDUAL       RESIDUAL       RESIDUAL    
   LAYER,ROW,COL  LAYER,ROW,COL  LAYER,ROW,COL  LAYER,ROW,COL  LAYER,ROW,COL
 ---------------------------------------------------------------------------
  1  0.1346E+06  0 -0.9490E+05  0 -0.8946E+05  0 -0.3877E+05  0  -6079.    
   ( 21,  1, 89)  ( 19,  1, 89)  ( 19,  1, 89)  ( 19,  1, 89)  ( 17,  1, 87)
  0   2866.      0   2466.      0   853.4      1   723.8    
   ( 22,  1, 87)  ( 22,  1, 87)  ( 22,  1, 87)  ( 22,  1, 87)


 FLOW MODEL IS TRANSIENT
 FLOW MODEL CONTAINS CONSTANT-HEAD CELLS


 MAXIMUM STEPSIZE DURING WHICH ANY PARTICLE CANNOT MOVE MORE THAN ONE CELL
 =  12.86    (WHEN MIN. R.F.=1)  AT K=  17, I=   1, J=  90

 MAXIMUM STEPSIZE WHICH MEETS STABILITY CRITERION OF THE ADVECTION TERM
 (FOR PURE FINITE-DIFFERENCE OPTION, MIXELM=0) 
 =  8.036    (WHEN MIN. R.F.=1)  AT K=  16, I=   1, J=  90


 TOTAL NUMBER OF POINT SOURCES/SINKS PRESENT IN THE FLOW MODEL =    30

 MAXIMUM STEPSIZE WHICH MEETS STABILITY CRITERION OF THE SINK & SOURCE TERM
 =  12.21    (WHEN MIN. R.F.=1)  AT K=  17, I=   1, J=  91

 MAXIMUM STEPSIZE WHICH MEETS STABILITY CRITERION OF THE DISPERSION TERM
 =  4.030    (WHEN MIN. R.F.=1)  AT K=  17, I=   1, J=  90
     1 CALLS TO GCG PACKAGE FOR TRANSPORT TIME STEP 563 IN FLOW TIME STEP   1 STRESS PERIOD   1
     8 TOTAL ITERATIONS
     1 CALLS TO GCG PACKAGE FOR TRANSPORT TIME STEP 563 IN FLOW TIME STEP   1 STRESS PERIOD   1
     8 TOTAL ITERATIONS
 
 SOLVING FOR HEAD 


     2 CALLS TO PCG ROUTINE FOR TIME STEP   1 IN STRESS PERIOD    1
     9 TOTAL ITERATIONS

 MAXIMUM HEAD CHANGE FOR EACH ITERATION (1 INDICATES THE FIRST INNER ITERATION):

    HEAD CHANGE    HEAD CHANGE    HEAD CHANGE    HEAD CHANGE    HEAD CHANGE 
   LAYER,ROW,COL  LAYER,ROW,COL  LAYER,ROW,COL  LAYER,ROW,COL  LAYER,ROW,COL
 ---------------------------------------------------------------------------
  1 -0.1351E-01  0  0.3710E-02  0  0.3085E-02  0 -0.1171E-01  0  0.1185E-01
   ( 15,  1, 86)  ( 17,  1, 89)  (  8,  1, 12)  ( 11,  1, 59)  ( 11,  1, 58)
  0 -0.2320E-02  0  0.1110E-02  0  0.5885E-03  1 -0.5051E-03
   ( 11,  1, 56)  ( 11,  1, 65)  ( 11,  1, 58)  ( 11,  1, 57)

 MAXIMUM RESIDUAL FOR EACH ITERATION (1 INDICATES THE FIRST INNER ITERATION):

    RESIDUAL       RESIDUAL       RESIDUAL       RESIDUAL       RESIDUAL    
   LAYER,ROW,COL  LAYER,ROW,COL  LAYER,ROW,COL  LAYER,ROW,COL  LAYER,ROW,COL
 ---------------------------------------------------------------------------
  1 -0.1328E+06  0  0.9294E+05  0  0.9199E+05  0  0.2510E+05  0   5208.    
   ( 21,  1, 89)  ( 19,  1, 89)  ( 19,  1, 89)  ( 19,  1, 89)  ( 17,  1, 87)
  0  -2850.      0  -2426.      0  -895.2      1  -784.2    
   ( 22,  1, 87)  ( 22,  1, 87)  ( 22,  1, 87)  ( 22,  1, 87)


 FLOW MODEL IS TRANSIENT
 FLOW MODEL CONTAINS CONSTANT-HEAD CELLS


 MAXIMUM STEPSIZE DURING WHICH ANY PARTICLE CANNOT MOVE MORE THAN ONE CELL
 =  13.21    (WHEN MIN. R.F.=1)  AT K=  17, I=   1, J=  90

 MAXIMUM STEPSIZE WHICH MEETS STABILITY CRITERION OF THE ADVECTION TERM
 (FOR PURE FINITE-DIFFERENCE OPTION, MIXELM=0) 
 =  8.003    (WHEN MIN. R.F.=1)  AT K=  16, I=   1, J=  90


 TOTAL NUMBER OF POINT SOURCES/SINKS PRESENT IN THE FLOW MODEL =    30

 MAXIMUM STEPSIZE WHICH MEETS STABILITY CRITERION OF THE SINK & SOURCE TERM
 =  12.17    (WHEN MIN. R.F.=1)  AT K=  17, I=   1, J=  91

 MAXIMUM STEPSIZE WHICH MEETS STABILITY CRITERION OF THE DISPERSION TERM
 =  4.359    (WHEN MIN. R.F.=1)  AT K=  17, I=   1, J=  90
     1 CALLS TO GCG PACKAGE FOR TRANSPORT TIME STEP 564 IN FLOW TIME STEP   1 STRESS PERIOD   1
     9 TOTAL ITERATIONS
     1 CALLS TO GCG PACKAGE FOR TRANSPORT TIME STEP 564 IN FLOW TIME STEP   1 STRESS PERIOD   1
     8 TOTAL ITERATIONS
 
 SOLVING FOR HEAD 


     2 CALLS TO PCG ROUTINE FOR TIME STEP   1 IN STRESS PERIOD    1
     9 TOTAL ITERATIONS

 MAXIMUM HEAD CHANGE FOR EACH ITERATION (1 INDICATES THE FIRST INNER ITERATION):

    HEAD CHANGE    HEAD CHANGE    HEAD CHANGE    HEAD CHANGE    HEAD CHANGE 
   LAYER,ROW,COL  LAYER,ROW,COL  LAYER,ROW,COL  LAYER,ROW,COL  LAYER,ROW,COL
 ---------------------------------------------------------------------------
  1  0.1347E-01  0 -0.3676E-02  0 -0.2396E-02  0 -0.7767E-02  0  0.8346E-02
   ( 15,  1, 86)  ( 17,  1, 89)  (  7,  1, 12)  (  9,  1, 46)  (  9,  1, 46)
  0  0.1512E-02  0 -0.1103E-02  0 -0.9019E-03  1  0.9707E-03
   ( 11,  1, 50)  ( 11,  1, 70)  ( 11,  1, 60)  ( 11,  1, 70)

 MAXIMUM RESIDUAL FOR EACH ITERATION (1 INDICATES THE FIRST INNER ITERATION):

    RESIDUAL       RESIDUAL       RESIDUAL       RESIDUAL       RESIDUAL    
   LAYER,ROW,COL  LAYER,ROW,COL  LAYER,ROW,COL  LAYER,ROW,COL  LAYER,ROW,COL
 ---------------------------------------------------------------------------
  1  0.1314E+06  0 -0.9231E+05  0 -0.8976E+05  0 -0.3441E+05  0  -5941.    
   ( 21,  1, 89)  ( 19,  1, 89)  ( 19,  1, 89)  ( 19,  1, 89)  ( 17,  1, 87)
  0   2890.      0   2499.      0   880.6      1   738.0    
   ( 22,  1, 87)  ( 22,  1, 87)  ( 22,  1, 87)  ( 22,  1, 87)


 FLOW MODEL IS TRANSIENT
 FLOW MODEL CONTAINS CONSTANT-HEAD CELLS


 MAXIMUM STEPSIZE DURING WHICH ANY PARTICLE CANNOT MOVE MORE THAN ONE CELL
 =  12.87    (WHEN MIN. R.F.=1)  AT K=  17, I=   1, J=  90

 MAXIMUM STEPSIZE WHICH MEETS STABILITY CRITERION OF THE ADVECTION TERM
 (FOR PURE FINITE-DIFFERENCE OPTION, MIXELM=0) 
 =  8.038    (WHEN MIN. R.F.=1)  AT K=  16, I=   1, J=  90


 TOTAL NUMBER OF POINT SOURCES/SINKS PRESENT IN THE FLOW MODEL =    30

 MAXIMUM STEPSIZE WHICH MEETS STABILITY CRITERION OF THE SINK & SOURCE TERM
 =  12.21    (WHEN MIN. R.F.=1)  AT K=  17, I=   1, J=  91

 MAXIMUM STEPSIZE WHICH MEETS STABILITY CRITERION OF THE DISPERSION TERM
 =  4.035    (WHEN MIN. R.F.=1)  AT K=  17, I=   1, J=  90
     1 CALLS TO GCG PACKAGE FOR TRANSPORT TIME STEP 565 IN FLOW TIME STEP   1 STRESS PERIOD   1
     8 TOTAL ITERATIONS
  MAXIMUM CONCENTRATION CHANGES FOR EACH ITERATION:
  MAX. CHANGE LAYER,ROW,COL MAX. CHANGE LAYER,ROW,COL MAX. CHANGE LAYER,ROW,COL MAX. CHANGE LAYER,ROW,COL MAX. CHANGE LAYER,ROW,COL
 ------------------------------------------------------------------------------------------------------------------------------------
   0.5262E-01 ( 20,  1, 87)  0.4175E-02 ( 19,  1, 89)  0.2157E-02 ( 18,  1, 86)  0.4683E-03 ( 20,  1, 89)  0.9640E-04 ( 16,  1, 89)
   0.2002E-04 ( 20,  1, 89)  0.1731E-04 ( 16,  1, 90)  0.7566E-06 ( 17,  1, 90)
     1 CALLS TO GCG PACKAGE FOR TRANSPORT TIME STEP 565 IN FLOW TIME STEP   1 STRESS PERIOD   1
     8 TOTAL ITERATIONS
  MAXIMUM CONCENTRATION CHANGES FOR EACH ITERATION:
  MAX. CHANGE LAYER,ROW,COL MAX. CHANGE LAYER,ROW,COL MAX. CHANGE LAYER,ROW,COL MAX. CHANGE LAYER,ROW,COL MAX. CHANGE LAYER,ROW,COL
 ------------------------------------------------------------------------------------------------------------------------------------
   0.5968E-01 ( 20,  1, 87)  0.4857E-02 ( 19,  1, 89)  0.2124E-02 ( 18,  1, 86)  0.4026E-03 ( 20,  1, 89)  0.1115E-03 ( 16,  1, 89)
   0.2017E-04 ( 23,  1, 87)  0.1522E-04 ( 17,  1, 90)  0.8827E-06 ( 17,  1, 90)
 
 SOLVING FOR HEAD 


     2 CALLS TO PCG ROUTINE FOR TIME STEP   1 IN STRESS PERIOD    1
     9 TOTAL ITERATIONS

 MAXIMUM HEAD CHANGE FOR EACH ITERATION (1 INDICATES THE FIRST INNER ITERATION):

    HEAD CHANGE    HEAD CHANGE    HEAD CHANGE    HEAD CHANGE    HEAD CHANGE 
   LAYER,ROW,COL  LAYER,ROW,COL  LAYER,ROW,COL  LAYER,ROW,COL  LAYER,ROW,COL
 ---------------------------------------------------------------------------
  1 -0.1352E-01  0  0.3672E-02  0  0.2508E-02  0 -0.9532E-02  0 -0.1061E-01
   ( 15,  1, 86)  ( 17,  1, 89)  (  8,  1, 12)  ( 11,  1, 60)  ( 11,  1, 49)
  0  0.2475E-02  0  0.1420E-02  0  0.6548E-03  1 -0.5561E-03
   ( 11,  1, 50)  ( 11,  1, 65)  ( 11,  1, 57)  ( 11,  1, 56)

 MAXIMUM RESIDUAL FOR EACH ITERATION (1 INDICATES THE FIRST INNER ITERATION):

    RESIDUAL       RESIDUAL       RESIDUAL       RESIDUAL       RESIDUAL    
   LAYER,ROW,COL  LAYER,ROW,COL  LAYER,ROW,COL  LAYER,ROW,COL  LAYER,ROW,COL
 ---------------------------------------------------------------------------
  1 -0.1323E+06  0  0.9292E+05  0  0.9169E+05  0  0.2110E+05  0   4901.    
   ( 21,  1, 89)  ( 19,  1, 89)  ( 19,  1, 89)  ( 19,  1, 89)  ( 17,  1, 87)
  0  -2845.      0  -2446.      0  -961.8      1  -850.1    
   ( 22,  1, 87)  ( 22,  1, 87)  ( 22,  1, 87)  ( 22,  1, 87)


 FLOW MODEL IS TRANSIENT
 FLOW MODEL CONTAINS CONSTANT-HEAD CELLS


 MAXIMUM STEPSIZE DURING WHICH ANY PARTICLE CANNOT MOVE MORE THAN ONE CELL
 =  13.21    (WHEN MIN. R.F.=1)  AT K=  17, I=   1, J=  90

 MAXIMUM STEPSIZE WHICH MEETS STABILITY CRITERION OF THE ADVECTION TERM
 (FOR PURE FINITE-DIFFERENCE OPTION, MIXELM=0) 
 =  8.003    (WHEN MIN. R.F.=1)  AT K=  16, I=   1, J=  90


 TOTAL NUMBER OF POINT SOURCES/SINKS PRESENT IN THE FLOW MODEL =    30

 MAXIMUM STEPSIZE WHICH MEETS STABILITY CRITERION OF THE SINK & SOURCE TERM
 =  12.17    (WHEN MIN. R.F.=1)  AT K=  17, I=   1, J=  91

 MAXIMUM STEPSIZE WHICH MEETS STABILITY CRITERION OF THE DISPERSION TERM
 =  4.356    (WHEN MIN. R.F.=1)  AT K=  17, I=   1, J=  90
     1 CALLS TO GCG PACKAGE FOR TRANSPORT TIME STEP 566 IN FLOW TIME STEP   1 STRESS PERIOD   1
     9 TOTAL ITERATIONS
     1 CALLS TO GCG PACKAGE FOR TRANSPORT TIME STEP 566 IN FLOW TIME STEP   1 STRESS PERIOD   1
     8 TOTAL ITERATIONS
 
 SOLVING FOR HEAD 


     2 CALLS TO PCG ROUTINE FOR TIME STEP   1 IN STRESS PERIOD    1
     9 TOTAL ITERATIONS

 MAXIMUM HEAD CHANGE FOR EACH ITERATION (1 INDICATES THE FIRST INNER ITERATION):

    HEAD CHANGE    HEAD CHANGE    HEAD CHANGE    HEAD CHANGE    HEAD CHANGE 
   LAYER,ROW,COL  LAYER,ROW,COL  LAYER,ROW,COL  LAYER,ROW,COL  LAYER,ROW,COL
 ---------------------------------------------------------------------------
  1  0.1351E-01  0 -0.3666E-02  0 -0.2308E-02  0 -0.7622E-02  0  0.8044E-02
   ( 15,  1, 86)  ( 17,  1, 89)  (  7,  1, 12)  ( 10,  1, 47)  (  7,  1, 46)
  0  0.1311E-02  0 -0.1083E-02  0 -0.9240E-03  1  0.8906E-03
   ( 11,  1, 49)  ( 11,  1, 70)  ( 11,  1, 59)  ( 11,  1, 70)

 MAXIMUM RESIDUAL FOR EACH ITERATION (1 INDICATES THE FIRST INNER ITERATION):

    RESIDUAL       RESIDUAL       RESIDUAL       RESIDUAL       RESIDUAL    
   LAYER,ROW,COL  LAYER,ROW,COL  LAYER,ROW,COL  LAYER,ROW,COL  LAYER,ROW,COL
 ---------------------------------------------------------------------------
  1  0.1316E+06  0 -0.9229E+05  0 -0.9032E+05  0 -0.3332E+05  0  -5891.    
   ( 21,  1, 89)  ( 19,  1, 89)  ( 19,  1, 89)  ( 19,  1, 89)  ( 17,  1, 87)
  0   2892.      0   2431.      0   833.3      1   686.7    
   ( 22,  1, 87)  ( 22,  1, 87)  ( 22,  1, 87)  ( 22,  1, 87)


 FLOW MODEL IS TRANSIENT
 FLOW MODEL CONTAINS CONSTANT-HEAD CELLS


 MAXIMUM STEPSIZE DURING WHICH ANY PARTICLE CANNOT MOVE MORE THAN ONE CELL
 =  12.87    (WHEN MIN. R.F.=1)  AT K=  17, I=   1, J=  90

 MAXIMUM STEPSIZE WHICH MEETS STABILITY CRITERION OF THE ADVECTION TERM
 (FOR PURE FINITE-DIFFERENCE OPTION, MIXELM=0) 
 =  8.038    (WHEN MIN. R.F.=1)  AT K=  16, I=   1, J=  90


 TOTAL NUMBER OF POINT SOURCES/SINKS PRESENT IN THE FLOW MODEL =    30

 MAXIMUM STEPSIZE WHICH MEETS STABILITY CRITERION OF THE SINK & SOURCE TERM
 =  12.21    (WHEN MIN. R.F.=1)  AT K=  17, I=   1, J=  91

 MAXIMUM STEPSIZE WHICH MEETS STABILITY CRITERION OF THE DISPERSION TERM
 =  4.037    (WHEN MIN. R.F.=1)  AT K=  17, I=   1, J=  90
     1 CALLS TO GCG PACKAGE FOR TRANSPORT TIME STEP 567 IN FLOW TIME STEP   1 STRESS PERIOD   1
     8 TOTAL ITERATIONS
     1 CALLS TO GCG PACKAGE FOR TRANSPORT TIME STEP 567 IN FLOW TIME STEP   1 STRESS PERIOD   1
     8 TOTAL ITERATIONS
 
 SOLVING FOR HEAD 


     2 CALLS TO PCG ROUTINE FOR TIME STEP   1 IN STRESS PERIOD    1
     8 TOTAL ITERATIONS

 MAXIMUM HEAD CHANGE FOR EACH ITERATION (1 INDICATES THE FIRST INNER ITERATION):

    HEAD CHANGE    HEAD CHANGE    HEAD CHANGE    HEAD CHANGE    HEAD CHANGE 
   LAYER,ROW,COL  LAYER,ROW,COL  LAYER,ROW,COL  LAYER,ROW,COL  LAYER,ROW,COL
 ---------------------------------------------------------------------------
  1 -0.1350E-01  0  0.3657E-02  0  0.2463E-02  0 -0.1067E-01  0  0.1162E-01
   ( 15,  1, 86)  ( 17,  1, 89)  (  8,  1, 12)  ( 11,  1, 59)  ( 11,  1, 59)
  0 -0.2253E-02  0  0.9426E-03  1 -0.5446E-03
   ( 11,  1, 58)  ( 11,  1, 65)  ( 11,  1, 65)

 MAXIMUM RESIDUAL FOR EACH ITERATION (1 INDICATES THE FIRST INNER ITERATION):

    RESIDUAL       RESIDUAL       RESIDUAL       RESIDUAL       RESIDUAL    
   LAYER,ROW,COL  LAYER,ROW,COL  LAYER,ROW,COL  LAYER,ROW,COL  LAYER,ROW,COL
 ---------------------------------------------------------------------------
  1 -0.1319E+06  0  0.9276E+05  0  0.9149E+05  0  0.1887E+05  0   4736.    
   ( 21,  1, 89)  ( 19,  1, 89)  ( 19,  1, 89)  ( 19,  1, 89)  ( 17,  1, 87)
  0  -2855.      0  -2331.      1  -2041.    
   ( 22,  1, 87)  ( 22,  1, 87)  ( 22,  1, 87)


 FLOW MODEL IS TRANSIENT
 FLOW MODEL CONTAINS CONSTANT-HEAD CELLS


 MAXIMUM STEPSIZE DURING WHICH ANY PARTICLE CANNOT MOVE MORE THAN ONE CELL
 =  13.22    (WHEN MIN. R.F.=1)  AT K=  17, I=   1, J=  90

 MAXIMUM STEPSIZE WHICH MEETS STABILITY CRITERION OF THE ADVECTION TERM
 (FOR PURE FINITE-DIFFERENCE OPTION, MIXELM=0) 
 =  8.008    (WHEN MIN. R.F.=1)  AT K=  16, I=   1, J=  90


 TOTAL NUMBER OF POINT SOURCES/SINKS PRESENT IN THE FLOW MODEL =    30

 MAXIMUM STEPSIZE WHICH MEETS STABILITY CRITERION OF THE SINK & SOURCE TERM
 =  12.18    (WHEN MIN. R.F.=1)  AT K=  17, I=   1, J=  91

 MAXIMUM STEPSIZE WHICH MEETS STABILITY CRITERION OF THE DISPERSION TERM
 =  4.360    (WHEN MIN. R.F.=1)  AT K=  17, I=   1, J=  90
     1 CALLS TO GCG PACKAGE FOR TRANSPORT TIME STEP 568 IN FLOW TIME STEP   1 STRESS PERIOD   1
     8 TOTAL ITERATIONS
     1 CALLS TO GCG PACKAGE FOR TRANSPORT TIME STEP 568 IN FLOW TIME STEP   1 STRESS PERIOD   1
     8 TOTAL ITERATIONS
 
 SOLVING FOR HEAD 


     2 CALLS TO PCG ROUTINE FOR TIME STEP   1 IN STRESS PERIOD    1
     8 TOTAL ITERATIONS

 MAXIMUM HEAD CHANGE FOR EACH ITERATION (1 INDICATES THE FIRST INNER ITERATION):

    HEAD CHANGE    HEAD CHANGE    HEAD CHANGE    HEAD CHANGE    HEAD CHANGE 
   LAYER,ROW,COL  LAYER,ROW,COL  LAYER,ROW,COL  LAYER,ROW,COL  LAYER,ROW,COL
 ---------------------------------------------------------------------------
  1  0.1378E-01  0 -0.3958E-02  0 -0.3940E-02  0  0.1032E-01  0 -0.8702E-02
   ( 15,  1, 86)  ( 17,  1, 89)  (  8,  1, 12)  (  8,  1, 44)  (  7,  1, 45)
  0 -0.1965E-02  0  0.9471E-03  1 -0.8485E-03
   ( 11,  1, 54)  ( 11,  1, 53)  ( 11,  1, 51)

 MAXIMUM RESIDUAL FOR EACH ITERATION (1 INDICATES THE FIRST INNER ITERATION):

    RESIDUAL       RESIDUAL       RESIDUAL       RESIDUAL       RESIDUAL    
   LAYER,ROW,COL  LAYER,ROW,COL  LAYER,ROW,COL  LAYER,ROW,COL  LAYER,ROW,COL
 ---------------------------------------------------------------------------
  1  0.1331E+06  0 -0.9436E+05  0 -0.9358E+05  0 -0.6000E+05  0  -5763.    
   ( 21,  1, 89)  ( 19,  1, 89)  ( 19,  1, 89)  ( 19,  1, 89)  ( 17,  1, 87)
  0   2826.      0   2598.      1   1901.    
   ( 22,  1, 87)  ( 22,  1, 87)  ( 22,  1, 87)


 FLOW MODEL IS TRANSIENT
 FLOW MODEL CONTAINS CONSTANT-HEAD CELLS


 MAXIMUM STEPSIZE DURING WHICH ANY PARTICLE CANNOT MOVE MORE THAN ONE CELL
 =  12.90    (WHEN MIN. R.F.=1)  AT K=  17, I=   1, J=  90

 MAXIMUM STEPSIZE WHICH MEETS STABILITY CRITERION OF THE ADVECTION TERM
 (FOR PURE FINITE-DIFFERENCE OPTION, MIXELM=0) 
 =  8.055    (WHEN MIN. R.F.=1)  AT K=  16, I=   1, J=  90


 TOTAL NUMBER OF POINT SOURCES/SINKS PRESENT IN THE FLOW MODEL =    30

 MAXIMUM STEPSIZE WHICH MEETS STABILITY CRITERION OF THE SINK & SOURCE TERM
 =  12.27    (WHEN MIN. R.F.=1)  AT K=  17, I=   1, J=  91

 MAXIMUM STEPSIZE WHICH MEETS STABILITY CRITERION OF THE DISPERSION TERM
 =  4.047    (WHEN MIN. R.F.=1)  AT K=  17, I=   1, J=  90
     1 CALLS TO GCG PACKAGE FOR TRANSPORT TIME STEP 569 IN FLOW TIME STEP   1 STRESS PERIOD   1
     8 TOTAL ITERATIONS
     1 CALLS TO GCG PACKAGE FOR TRANSPORT TIME STEP 569 IN FLOW TIME STEP   1 STRESS PERIOD   1
     8 TOTAL ITERATIONS
 
 SOLVING FOR HEAD 


     2 CALLS TO PCG ROUTINE FOR TIME STEP   1 IN STRESS PERIOD    1
     8 TOTAL ITERATIONS

 MAXIMUM HEAD CHANGE FOR EACH ITERATION (1 INDICATES THE FIRST INNER ITERATION):

    HEAD CHANGE    HEAD CHANGE    HEAD CHANGE    HEAD CHANGE    HEAD CHANGE 
   LAYER,ROW,COL  LAYER,ROW,COL  LAYER,ROW,COL  LAYER,ROW,COL  LAYER,ROW,COL
 ---------------------------------------------------------------------------
  1 -0.1378E-01  0 -0.1112E-01  0  0.5351E-02  0  0.1596E-01  0 -0.1132E-01
   ( 15,  1, 86)  ( 11,  1, 51)  (  8,  1, 12)  ( 11,  1, 51)  ( 11,  1, 51)
  0  0.2099E-02  0  0.9885E-03  1  0.4263E-03
   ( 11,  1, 57)  ( 11,  1, 69)  ( 11,  1, 38)

 MAXIMUM RESIDUAL FOR EACH ITERATION (1 INDICATES THE FIRST INNER ITERATION):

    RESIDUAL       RESIDUAL       RESIDUAL       RESIDUAL       RESIDUAL    
   LAYER,ROW,COL  LAYER,ROW,COL  LAYER,ROW,COL  LAYER,ROW,COL  LAYER,ROW,COL
 ---------------------------------------------------------------------------
  1 -0.1357E+06  0  0.9629E+05  0  0.9578E+05  0  0.7493E+05  0  -5666.    
   ( 21,  1, 89)  ( 19,  1, 89)  ( 19,  1, 89)  ( 19,  1, 89)  ( 17,  1, 88)
  0  -2790.      0  -2642.      1  -1754.    
   ( 22,  1, 87)  ( 22,  1, 87)  ( 22,  1, 87)


 FLOW MODEL IS TRANSIENT
 FLOW MODEL CONTAINS CONSTANT-HEAD CELLS


 MAXIMUM STEPSIZE DURING WHICH ANY PARTICLE CANNOT MOVE MORE THAN ONE CELL
 =  13.21    (WHEN MIN. R.F.=1)  AT K=  17, I=   1, J=  90

 MAXIMUM STEPSIZE WHICH MEETS STABILITY CRITERION OF THE ADVECTION TERM
 (FOR PURE FINITE-DIFFERENCE OPTION, MIXELM=0) 
 =  7.997    (WHEN MIN. R.F.=1)  AT K=  16, I=   1, J=  90


 TOTAL NUMBER OF POINT SOURCES/SINKS PRESENT IN THE FLOW MODEL =    30

 MAXIMUM STEPSIZE WHICH MEETS STABILITY CRITERION OF THE SINK & SOURCE TERM
 =  12.16    (WHEN MIN. R.F.=1)  AT K=  17, I=   1, J=  91

 MAXIMUM STEPSIZE WHICH MEETS STABILITY CRITERION OF THE DISPERSION TERM
 =  4.363    (WHEN MIN. R.F.=1)  AT K=  17, I=   1, J=  90
     1 CALLS TO GCG PACKAGE FOR TRANSPORT TIME STEP 570 IN FLOW TIME STEP   1 STRESS PERIOD   1
     9 TOTAL ITERATIONS
  MAXIMUM CONCENTRATION CHANGES FOR EACH ITERATION:
  MAX. CHANGE LAYER,ROW,COL MAX. CHANGE LAYER,ROW,COL MAX. CHANGE LAYER,ROW,COL MAX. CHANGE LAYER,ROW,COL MAX. CHANGE LAYER,ROW,COL
 ------------------------------------------------------------------------------------------------------------------------------------
   0.4833E-01 ( 20,  1, 87)  0.3252E-02 ( 19,  1, 87)  0.2112E-02 ( 18,  1, 87)  0.2113E-03 ( 16,  1, 88)  0.1422E-03 ( 17,  1, 89)
   0.2749E-04 ( 16,  1, 90)  0.1298E-05 ( 21,  1, 78)  0.3018E-05 ( 21,  1, 78)  0.8293E-06 ( 16,  1, 89)
     1 CALLS TO GCG PACKAGE FOR TRANSPORT TIME STEP 570 IN FLOW TIME STEP   1 STRESS PERIOD   1
     8 TOTAL ITERATIONS
  MAXIMUM CONCENTRATION CHANGES FOR EACH ITERATION:
  MAX. CHANGE LAYER,ROW,COL MAX. CHANGE LAYER,ROW,COL MAX. CHANGE LAYER,ROW,COL MAX. CHANGE LAYER,ROW,COL MAX. CHANGE LAYER,ROW,COL
 ------------------------------------------------------------------------------------------------------------------------------------
   0.5549E-01 ( 20,  1, 87)  0.3863E-02 ( 19,  1, 87)  0.2285E-02 ( 18,  1, 87)  0.2417E-03 ( 23,  1, 88)  0.1367E-03 ( 17,  1, 89)
   0.3589E-04 ( 16,  1, 90)  0.5252E-05 ( 17,  1, 90)  0.5847E-06 ( 16,  1, 89)



 >>>>>>>>>>>>>>>>>>>>>>>>>>>>>>>>>>>>>>>>>>>>>>>>>>>>>>>FOR COMPONENT NO. 01<<<<<<<<<<<<<<<<<<<<<<<<<<<<<<<<<<<<<<<<<<<<<<<<<<<<<<<


                                            -------------------------------------------
                                                      TRANSPORT STEP NO.  570
                                            -------------------------------------------

 TOTAL ELAPSED TIME SINCE BEGINNING OF SIMULATION =   28500.00    D   
 .....................................................................

                     CUMMULATIVE MASS BUDGETS AT END OF TRANSPORT STEP  570, TIME STEP    1, STRESS PERIOD    1
                     ------------------------------------------------------------------------------------------

                                                             IN                           OUT
                                                      ----------------             ----------------
                               CONSTANT CONCENTRATION:    0.000000                    0.000000    
                                        CONSTANT HEAD:   0.1127725E+10              -0.1127517E+10
                                                WELLS:    0.000000                    0.000000    
                                             RECHARGE:    0.000000                    0.000000    
                               1ST/0TH ORDER REACTION:    0.000000                    0.000000    
                                MASS STORAGE (SOLUTE):   0.1576733E+09              -0.1578811E+09
                            ---------------------------------------------------------------------------
                                              [TOTAL]:   0.1285400E+10 KG           -0.1285400E+10 KG  

                                                          NET (IN - OUT):   -217.7118    
                                                   DISCREPANCY (PERCENT):  -0.1693729E-04



 >>>>>>>>>>>>>>>>>>>>>>>>>>>>>>>>>>>>>>>>>>>>>>>>>>>>>>>FOR COMPONENT NO. 02<<<<<<<<<<<<<<<<<<<<<<<<<<<<<<<<<<<<<<<<<<<<<<<<<<<<<<<


                                            -------------------------------------------
                                                      TRANSPORT STEP NO.  570
                                            -------------------------------------------

 TOTAL ELAPSED TIME SINCE BEGINNING OF SIMULATION =   28500.00    D   
 .....................................................................

                     CUMMULATIVE MASS BUDGETS AT END OF TRANSPORT STEP  570, TIME STEP    1, STRESS PERIOD    1
                     ------------------------------------------------------------------------------------------

                                                             IN                           OUT
                                                      ----------------             ----------------
                               CONSTANT CONCENTRATION:    0.000000                    0.000000    
                                        CONSTANT HEAD:    0.000000                  -0.1867261E+12
                                                WELLS:    0.000000                    0.000000    
                                             RECHARGE:    0.000000                    0.000000    
                               1ST/0TH ORDER REACTION:   0.4716750E+12                0.000000    
                                MASS STORAGE (SOLUTE):   0.6208944E+11              -0.3470384E+12
                            ---------------------------------------------------------------------------
                                              [TOTAL]:   0.5337653E+12 KG           -0.5337654E+12 KG  

                                                          NET (IN - OUT):   -65125.45    
                                                   DISCREPANCY (PERCENT):  -0.1220114E-04
 
 SOLVING FOR HEAD 


     2 CALLS TO PCG ROUTINE FOR TIME STEP   1 IN STRESS PERIOD    1
     9 TOTAL ITERATIONS

 MAXIMUM HEAD CHANGE FOR EACH ITERATION (1 INDICATES THE FIRST INNER ITERATION):

    HEAD CHANGE    HEAD CHANGE    HEAD CHANGE    HEAD CHANGE    HEAD CHANGE 
   LAYER,ROW,COL  LAYER,ROW,COL  LAYER,ROW,COL  LAYER,ROW,COL  LAYER,ROW,COL
 ---------------------------------------------------------------------------
  1  0.1350E-01  0 -0.7567E-02  0 -0.3378E-02  0  0.9541E-02  0 -0.5843E-02
   ( 15,  1, 86)  (  9,  1, 47)  (  8,  1, 12)  (  8,  1, 46)  (  8,  1, 48)
  0 -0.4015E-02  0  0.1652E-02  0 -0.9303E-03  1 -0.7503E-03
   ( 11,  1, 56)  ( 11,  1, 56)  ( 11,  1, 70)  ( 11,  1, 67)

 MAXIMUM RESIDUAL FOR EACH ITERATION (1 INDICATES THE FIRST INNER ITERATION):

    RESIDUAL       RESIDUAL       RESIDUAL       RESIDUAL       RESIDUAL    
   LAYER,ROW,COL  LAYER,ROW,COL  LAYER,ROW,COL  LAYER,ROW,COL  LAYER,ROW,COL
 ---------------------------------------------------------------------------
  1  0.1374E+06  0 -0.9837E+05  0 -0.9716E+05  0 -0.8276E+05  0   6649.    
   ( 21,  1, 89)  ( 19,  1, 89)  ( 19,  1, 89)  ( 19,  1, 89)  ( 17,  1, 88)
  0   3011.      0   2499.      0   1522.      1   1321.    
   ( 17,  1, 88)  ( 22,  1, 87)  ( 22,  1, 87)  ( 22,  1, 87)


 FLOW MODEL IS TRANSIENT
 FLOW MODEL CONTAINS CONSTANT-HEAD CELLS


 MAXIMUM STEPSIZE DURING WHICH ANY PARTICLE CANNOT MOVE MORE THAN ONE CELL
 =  12.86    (WHEN MIN. R.F.=1)  AT K=  17, I=   1, J=  90

 MAXIMUM STEPSIZE WHICH MEETS STABILITY CRITERION OF THE ADVECTION TERM
 (FOR PURE FINITE-DIFFERENCE OPTION, MIXELM=0) 
 =  8.044    (WHEN MIN. R.F.=1)  AT K=  16, I=   1, J=  90


 TOTAL NUMBER OF POINT SOURCES/SINKS PRESENT IN THE FLOW MODEL =    30

 MAXIMUM STEPSIZE WHICH MEETS STABILITY CRITERION OF THE SINK & SOURCE TERM
 =  12.22    (WHEN MIN. R.F.=1)  AT K=  17, I=   1, J=  91

 MAXIMUM STEPSIZE WHICH MEETS STABILITY CRITERION OF THE DISPERSION TERM
 =  4.025    (WHEN MIN. R.F.=1)  AT K=  17, I=   1, J=  90
     1 CALLS TO GCG PACKAGE FOR TRANSPORT TIME STEP 571 IN FLOW TIME STEP   1 STRESS PERIOD   1
     8 TOTAL ITERATIONS
     1 CALLS TO GCG PACKAGE FOR TRANSPORT TIME STEP 571 IN FLOW TIME STEP   1 STRESS PERIOD   1
     8 TOTAL ITERATIONS
 
 SOLVING FOR HEAD 


     2 CALLS TO PCG ROUTINE FOR TIME STEP   1 IN STRESS PERIOD    1
     8 TOTAL ITERATIONS

 MAXIMUM HEAD CHANGE FOR EACH ITERATION (1 INDICATES THE FIRST INNER ITERATION):

    HEAD CHANGE    HEAD CHANGE    HEAD CHANGE    HEAD CHANGE    HEAD CHANGE 
   LAYER,ROW,COL  LAYER,ROW,COL  LAYER,ROW,COL  LAYER,ROW,COL  LAYER,ROW,COL
 ---------------------------------------------------------------------------
  1 -0.1369E-01  0 -0.4570E-02  0  0.4947E-02  0 -0.1358E-01  0  0.1312E-01
   ( 15,  1, 86)  (  8,  1, 12)  (  8,  1, 12)  ( 11,  1, 51)  ( 11,  1, 51)
  0  0.2111E-02  0 -0.7063E-03  1  0.5188E-03
   ( 11,  1, 69)  ( 11,  1, 62)  (  7,  1, 45)

 MAXIMUM RESIDUAL FOR EACH ITERATION (1 INDICATES THE FIRST INNER ITERATION):

    RESIDUAL       RESIDUAL       RESIDUAL       RESIDUAL       RESIDUAL    
   LAYER,ROW,COL  LAYER,ROW,COL  LAYER,ROW,COL  LAYER,ROW,COL  LAYER,ROW,COL
 ---------------------------------------------------------------------------
  1 -0.1334E+06  0  0.9399E+05  0  0.9344E+05  0  0.2635E+05  0  -5286.    
   ( 21,  1, 89)  ( 19,  1, 89)  ( 19,  1, 89)  ( 19,  1, 89)  ( 17,  1, 88)
  0  -2780.      0  -2520.      1  -1957.    
   ( 22,  1, 87)  ( 22,  1, 87)  ( 22,  1, 87)


 FLOW MODEL IS TRANSIENT
 FLOW MODEL CONTAINS CONSTANT-HEAD CELLS


 MAXIMUM STEPSIZE DURING WHICH ANY PARTICLE CANNOT MOVE MORE THAN ONE CELL
 =  13.24    (WHEN MIN. R.F.=1)  AT K=  17, I=   1, J=  90

 MAXIMUM STEPSIZE WHICH MEETS STABILITY CRITERION OF THE ADVECTION TERM
 (FOR PURE FINITE-DIFFERENCE OPTION, MIXELM=0) 
 =  8.008    (WHEN MIN. R.F.=1)  AT K=  16, I=   1, J=  90


 TOTAL NUMBER OF POINT SOURCES/SINKS PRESENT IN THE FLOW MODEL =    30

 MAXIMUM STEPSIZE WHICH MEETS STABILITY CRITERION OF THE SINK & SOURCE TERM
 =  12.17    (WHEN MIN. R.F.=1)  AT K=  17, I=   1, J=  91

 MAXIMUM STEPSIZE WHICH MEETS STABILITY CRITERION OF THE DISPERSION TERM
 =  4.381    (WHEN MIN. R.F.=1)  AT K=  17, I=   1, J=  90
     1 CALLS TO GCG PACKAGE FOR TRANSPORT TIME STEP 572 IN FLOW TIME STEP   1 STRESS PERIOD   1
     7 TOTAL ITERATIONS
     1 CALLS TO GCG PACKAGE FOR TRANSPORT TIME STEP 572 IN FLOW TIME STEP   1 STRESS PERIOD   1
     8 TOTAL ITERATIONS
 
 SOLVING FOR HEAD 


     2 CALLS TO PCG ROUTINE FOR TIME STEP   1 IN STRESS PERIOD    1
     9 TOTAL ITERATIONS

 MAXIMUM HEAD CHANGE FOR EACH ITERATION (1 INDICATES THE FIRST INNER ITERATION):

    HEAD CHANGE    HEAD CHANGE    HEAD CHANGE    HEAD CHANGE    HEAD CHANGE 
   LAYER,ROW,COL  LAYER,ROW,COL  LAYER,ROW,COL  LAYER,ROW,COL  LAYER,ROW,COL
 ---------------------------------------------------------------------------
  1  0.1364E-01  0  0.8554E-02  0 -0.3312E-02  0 -0.9460E-02  0  0.6025E-02
   ( 15,  1, 86)  (  8,  1, 45)  (  7,  1, 12)  (  6,  1, 45)  (  7,  1, 48)
  0  0.4885E-02  0 -0.1883E-02  0 -0.7548E-03  1 -0.6427E-03
   ( 11,  1, 50)  ( 11,  1, 51)  ( 11,  1, 64)  ( 11,  1, 56)

 MAXIMUM RESIDUAL FOR EACH ITERATION (1 INDICATES THE FIRST INNER ITERATION):

    RESIDUAL       RESIDUAL       RESIDUAL       RESIDUAL       RESIDUAL    
   LAYER,ROW,COL  LAYER,ROW,COL  LAYER,ROW,COL  LAYER,ROW,COL  LAYER,ROW,COL
 ---------------------------------------------------------------------------
  1  0.1360E+06  0 -0.9673E+05  0 -0.9570E+05  0 -0.7957E+05  0   6399.    
   ( 21,  1, 89)  ( 19,  1, 89)  ( 19,  1, 89)  ( 19,  1, 89)  ( 17,  1, 88)
  0   3096.      0   2538.      0   1671.      1   1472.    
   ( 17,  1, 88)  ( 22,  1, 87)  ( 22,  1, 87)  ( 22,  1, 87)


 FLOW MODEL IS TRANSIENT
 FLOW MODEL CONTAINS CONSTANT-HEAD CELLS


 MAXIMUM STEPSIZE DURING WHICH ANY PARTICLE CANNOT MOVE MORE THAN ONE CELL
 =  12.89    (WHEN MIN. R.F.=1)  AT K=  17, I=   1, J=  90

 MAXIMUM STEPSIZE WHICH MEETS STABILITY CRITERION OF THE ADVECTION TERM
 (FOR PURE FINITE-DIFFERENCE OPTION, MIXELM=0) 
 =  8.055    (WHEN MIN. R.F.=1)  AT K=  16, I=   1, J=  90


 TOTAL NUMBER OF POINT SOURCES/SINKS PRESENT IN THE FLOW MODEL =    30

 MAXIMUM STEPSIZE WHICH MEETS STABILITY CRITERION OF THE SINK & SOURCE TERM
 =  12.26    (WHEN MIN. R.F.=1)  AT K=  17, I=   1, J=  91

 MAXIMUM STEPSIZE WHICH MEETS STABILITY CRITERION OF THE DISPERSION TERM
 =  4.038    (WHEN MIN. R.F.=1)  AT K=  17, I=   1, J=  90
     1 CALLS TO GCG PACKAGE FOR TRANSPORT TIME STEP 573 IN FLOW TIME STEP   1 STRESS PERIOD   1
     8 TOTAL ITERATIONS
     1 CALLS TO GCG PACKAGE FOR TRANSPORT TIME STEP 573 IN FLOW TIME STEP   1 STRESS PERIOD   1
     8 TOTAL ITERATIONS
 
 SOLVING FOR HEAD 


     2 CALLS TO PCG ROUTINE FOR TIME STEP   1 IN STRESS PERIOD    1
     9 TOTAL ITERATIONS

 MAXIMUM HEAD CHANGE FOR EACH ITERATION (1 INDICATES THE FIRST INNER ITERATION):

    HEAD CHANGE    HEAD CHANGE    HEAD CHANGE    HEAD CHANGE    HEAD CHANGE 
   LAYER,ROW,COL  LAYER,ROW,COL  LAYER,ROW,COL  LAYER,ROW,COL  LAYER,ROW,COL
 ---------------------------------------------------------------------------
  1 -0.1379E-01  0 -0.4435E-02  0  0.4920E-02  0  0.1087E-01  0 -0.1185E-01
   ( 15,  1, 86)  (  8,  1, 12)  (  8,  1, 12)  ( 11,  1, 55)  ( 11,  1, 55)
  0  0.2241E-02  0  0.1004E-02  0  0.6455E-03  1  0.3143E-03
   ( 11,  1, 52)  ( 11,  1, 70)  ( 11,  1, 50)  ( 11,  1, 68)

 MAXIMUM RESIDUAL FOR EACH ITERATION (1 INDICATES THE FIRST INNER ITERATION):

    RESIDUAL       RESIDUAL       RESIDUAL       RESIDUAL       RESIDUAL    
   LAYER,ROW,COL  LAYER,ROW,COL  LAYER,ROW,COL  LAYER,ROW,COL  LAYER,ROW,COL
 ---------------------------------------------------------------------------
  1 -0.1364E+06  0  0.9669E+05  0  0.9609E+05  0  0.2749E+05  0  -5342.    
   ( 21,  1, 89)  ( 19,  1, 89)  ( 19,  1, 89)  ( 19,  1, 89)  ( 17,  1, 88)
  0  -2785.      0  -2399.      0  -674.0      1  -593.6    
   ( 22,  1, 87)  ( 22,  1, 87)  ( 22,  1, 87)  ( 22,  1, 87)


 FLOW MODEL IS TRANSIENT
 FLOW MODEL CONTAINS CONSTANT-HEAD CELLS


 MAXIMUM STEPSIZE DURING WHICH ANY PARTICLE CANNOT MOVE MORE THAN ONE CELL
 =  13.23    (WHEN MIN. R.F.=1)  AT K=  17, I=   1, J=  90

 MAXIMUM STEPSIZE WHICH MEETS STABILITY CRITERION OF THE ADVECTION TERM
 (FOR PURE FINITE-DIFFERENCE OPTION, MIXELM=0) 
 =  8.004    (WHEN MIN. R.F.=1)  AT K=  16, I=   1, J=  90


 TOTAL NUMBER OF POINT SOURCES/SINKS PRESENT IN THE FLOW MODEL =    30

 MAXIMUM STEPSIZE WHICH MEETS STABILITY CRITERION OF THE SINK & SOURCE TERM
 =  12.18    (WHEN MIN. R.F.=1)  AT K=  17, I=   1, J=  91

 MAXIMUM STEPSIZE WHICH MEETS STABILITY CRITERION OF THE DISPERSION TERM
 =  4.382    (WHEN MIN. R.F.=1)  AT K=  17, I=   1, J=  90
     1 CALLS TO GCG PACKAGE FOR TRANSPORT TIME STEP 574 IN FLOW TIME STEP   1 STRESS PERIOD   1
     9 TOTAL ITERATIONS
     1 CALLS TO GCG PACKAGE FOR TRANSPORT TIME STEP 574 IN FLOW TIME STEP   1 STRESS PERIOD   1
     8 TOTAL ITERATIONS
 
 SOLVING FOR HEAD 


     2 CALLS TO PCG ROUTINE FOR TIME STEP   1 IN STRESS PERIOD    1
     9 TOTAL ITERATIONS

 MAXIMUM HEAD CHANGE FOR EACH ITERATION (1 INDICATES THE FIRST INNER ITERATION):

    HEAD CHANGE    HEAD CHANGE    HEAD CHANGE    HEAD CHANGE    HEAD CHANGE 
   LAYER,ROW,COL  LAYER,ROW,COL  LAYER,ROW,COL  LAYER,ROW,COL  LAYER,ROW,COL
 ---------------------------------------------------------------------------
  1  0.1332E-01  0 -0.3900E-02  0 -0.3484E-02  0 -0.6569E-02  0  0.8661E-02
   ( 15,  1, 86)  ( 17,  1, 89)  (  6,  1, 12)  (  9,  1, 51)  (  9,  1, 50)
  0  0.1028E-02  0 -0.1035E-02  0 -0.9361E-03  1  0.5574E-03
   ( 11,  1, 41)  ( 11,  1, 68)  ( 11,  1, 62)  ( 11,  1, 61)

 MAXIMUM RESIDUAL FOR EACH ITERATION (1 INDICATES THE FIRST INNER ITERATION):

    RESIDUAL       RESIDUAL       RESIDUAL       RESIDUAL       RESIDUAL    
   LAYER,ROW,COL  LAYER,ROW,COL  LAYER,ROW,COL  LAYER,ROW,COL  LAYER,ROW,COL
 ---------------------------------------------------------------------------
  1  0.1357E+06  0 -0.9608E+05  0 -0.8703E+05  0 -0.3832E+05  0  -6136.    
   ( 21,  1, 89)  ( 19,  1, 89)  ( 19,  1, 89)  ( 19,  1, 89)  ( 17,  1, 87)
  0   2839.      0   2229.      0   789.3      1   658.7    
   ( 22,  1, 87)  ( 22,  1, 87)  ( 22,  1, 87)  ( 22,  1, 87)


 FLOW MODEL IS TRANSIENT
 FLOW MODEL CONTAINS CONSTANT-HEAD CELLS


 MAXIMUM STEPSIZE DURING WHICH ANY PARTICLE CANNOT MOVE MORE THAN ONE CELL
 =  12.84    (WHEN MIN. R.F.=1)  AT K=  17, I=   1, J=  90

 MAXIMUM STEPSIZE WHICH MEETS STABILITY CRITERION OF THE ADVECTION TERM
 (FOR PURE FINITE-DIFFERENCE OPTION, MIXELM=0) 
 =  8.033    (WHEN MIN. R.F.=1)  AT K=  16, I=   1, J=  90


 TOTAL NUMBER OF POINT SOURCES/SINKS PRESENT IN THE FLOW MODEL =    30

 MAXIMUM STEPSIZE WHICH MEETS STABILITY CRITERION OF THE SINK & SOURCE TERM
 =  12.20    (WHEN MIN. R.F.=1)  AT K=  17, I=   1, J=  91

 MAXIMUM STEPSIZE WHICH MEETS STABILITY CRITERION OF THE DISPERSION TERM
 =  4.023    (WHEN MIN. R.F.=1)  AT K=  17, I=   1, J=  90
     1 CALLS TO GCG PACKAGE FOR TRANSPORT TIME STEP 575 IN FLOW TIME STEP   1 STRESS PERIOD   1
     8 TOTAL ITERATIONS
  MAXIMUM CONCENTRATION CHANGES FOR EACH ITERATION:
  MAX. CHANGE LAYER,ROW,COL MAX. CHANGE LAYER,ROW,COL MAX. CHANGE LAYER,ROW,COL MAX. CHANGE LAYER,ROW,COL MAX. CHANGE LAYER,ROW,COL
 ------------------------------------------------------------------------------------------------------------------------------------
   0.5273E-01 ( 20,  1, 87)  0.4263E-02 ( 19,  1, 89)  0.2129E-02 ( 17,  1, 86)  0.4744E-03 ( 20,  1, 89)  0.9475E-04 ( 16,  1, 89)
   0.2029E-04 ( 20,  1, 89)  0.1986E-04 ( 16,  1, 90)  0.7473E-06 ( 17,  1, 90)
     1 CALLS TO GCG PACKAGE FOR TRANSPORT TIME STEP 575 IN FLOW TIME STEP   1 STRESS PERIOD   1
     8 TOTAL ITERATIONS
  MAXIMUM CONCENTRATION CHANGES FOR EACH ITERATION:
  MAX. CHANGE LAYER,ROW,COL MAX. CHANGE LAYER,ROW,COL MAX. CHANGE LAYER,ROW,COL MAX. CHANGE LAYER,ROW,COL MAX. CHANGE LAYER,ROW,COL
 ------------------------------------------------------------------------------------------------------------------------------------
   0.5961E-01 ( 20,  1, 87)  0.4943E-02 ( 19,  1, 89)  0.2082E-02 ( 18,  1, 86)  0.4169E-03 ( 20,  1, 89)  0.1137E-03 ( 16,  1, 89)
   0.2115E-04 ( 23,  1, 87)  0.1743E-04 ( 16,  1, 90)  0.8505E-06 ( 17,  1, 90)
 
 SOLVING FOR HEAD 


     2 CALLS TO PCG ROUTINE FOR TIME STEP   1 IN STRESS PERIOD    1
     9 TOTAL ITERATIONS

 MAXIMUM HEAD CHANGE FOR EACH ITERATION (1 INDICATES THE FIRST INNER ITERATION):

    HEAD CHANGE    HEAD CHANGE    HEAD CHANGE    HEAD CHANGE    HEAD CHANGE 
   LAYER,ROW,COL  LAYER,ROW,COL  LAYER,ROW,COL  LAYER,ROW,COL  LAYER,ROW,COL
 ---------------------------------------------------------------------------
  1 -0.1344E-01  0  0.3734E-02  0  0.3414E-02  0  0.9297E-02  0 -0.1040E-01
   ( 15,  1, 86)  ( 17,  1, 89)  (  8,  1, 12)  ( 11,  1, 51)  ( 11,  1, 51)
  0  0.1957E-02  0  0.1370E-02  0  0.7003E-03  1 -0.6149E-03
   ( 11,  1, 51)  ( 11,  1, 70)  ( 11,  1, 58)  ( 11,  1, 70)

 MAXIMUM RESIDUAL FOR EACH ITERATION (1 INDICATES THE FIRST INNER ITERATION):

    RESIDUAL       RESIDUAL       RESIDUAL       RESIDUAL       RESIDUAL    
   LAYER,ROW,COL  LAYER,ROW,COL  LAYER,ROW,COL  LAYER,ROW,COL  LAYER,ROW,COL
 ---------------------------------------------------------------------------
  1 -0.1334E+06  0  0.9370E+05  0  0.9283E+05  0  0.2574E+05  0   5325.    
   ( 21,  1, 89)  ( 19,  1, 89)  ( 19,  1, 89)  ( 19,  1, 89)  ( 17,  1, 87)
  0  -2803.      0  -2324.      0  -729.9      1  -615.3    
   ( 22,  1, 87)  ( 22,  1, 87)  ( 22,  1, 87)  ( 22,  1, 87)


 FLOW MODEL IS TRANSIENT
 FLOW MODEL CONTAINS CONSTANT-HEAD CELLS


 MAXIMUM STEPSIZE DURING WHICH ANY PARTICLE CANNOT MOVE MORE THAN ONE CELL
 =  13.22    (WHEN MIN. R.F.=1)  AT K=  17, I=   1, J=  90

 MAXIMUM STEPSIZE WHICH MEETS STABILITY CRITERION OF THE ADVECTION TERM
 (FOR PURE FINITE-DIFFERENCE OPTION, MIXELM=0) 
 =  8.005    (WHEN MIN. R.F.=1)  AT K=  16, I=   1, J=  90


 TOTAL NUMBER OF POINT SOURCES/SINKS PRESENT IN THE FLOW MODEL =    30

 MAXIMUM STEPSIZE WHICH MEETS STABILITY CRITERION OF THE SINK & SOURCE TERM
 =  12.17    (WHEN MIN. R.F.=1)  AT K=  17, I=   1, J=  91

 MAXIMUM STEPSIZE WHICH MEETS STABILITY CRITERION OF THE DISPERSION TERM
 =  4.371    (WHEN MIN. R.F.=1)  AT K=  17, I=   1, J=  90
     1 CALLS TO GCG PACKAGE FOR TRANSPORT TIME STEP 576 IN FLOW TIME STEP   1 STRESS PERIOD   1
     9 TOTAL ITERATIONS
     1 CALLS TO GCG PACKAGE FOR TRANSPORT TIME STEP 576 IN FLOW TIME STEP   1 STRESS PERIOD   1
     8 TOTAL ITERATIONS
 
 SOLVING FOR HEAD 


     2 CALLS TO PCG ROUTINE FOR TIME STEP   1 IN STRESS PERIOD    1
     8 TOTAL ITERATIONS

 MAXIMUM HEAD CHANGE FOR EACH ITERATION (1 INDICATES THE FIRST INNER ITERATION):

    HEAD CHANGE    HEAD CHANGE    HEAD CHANGE    HEAD CHANGE    HEAD CHANGE 
   LAYER,ROW,COL  LAYER,ROW,COL  LAYER,ROW,COL  LAYER,ROW,COL  LAYER,ROW,COL
 ---------------------------------------------------------------------------
  1  0.1346E-01  0 -0.3694E-02  0 -0.3062E-02  0 -0.1038E-01  0  0.1098E-01
   ( 15,  1, 86)  ( 17,  1, 89)  (  7,  1, 12)  ( 11,  1, 67)  ( 11,  1, 67)
  0  0.1610E-02  0 -0.7808E-03  1 -0.8494E-03
   ( 11,  1, 49)  ( 11,  1, 49)  ( 11,  1, 58)

 MAXIMUM RESIDUAL FOR EACH ITERATION (1 INDICATES THE FIRST INNER ITERATION):

    RESIDUAL       RESIDUAL       RESIDUAL       RESIDUAL       RESIDUAL    
   LAYER,ROW,COL  LAYER,ROW,COL  LAYER,ROW,COL  LAYER,ROW,COL  LAYER,ROW,COL
 ---------------------------------------------------------------------------
  1  0.1316E+06  0 -0.9177E+05  0 -0.8601E+05  0 -0.2769E+05  0  -5661.    
   ( 21,  1, 89)  ( 19,  1, 89)  ( 19,  1, 89)  ( 19,  1, 89)  ( 17,  1, 87)
  0   2891.      0   2627.      1   2002.    
   ( 22,  1, 87)  ( 22,  1, 87)  ( 22,  1, 87)


 FLOW MODEL IS TRANSIENT
 FLOW MODEL CONTAINS CONSTANT-HEAD CELLS


 MAXIMUM STEPSIZE DURING WHICH ANY PARTICLE CANNOT MOVE MORE THAN ONE CELL
 =  12.85    (WHEN MIN. R.F.=1)  AT K=  17, I=   1, J=  90

 MAXIMUM STEPSIZE WHICH MEETS STABILITY CRITERION OF THE ADVECTION TERM
 (FOR PURE FINITE-DIFFERENCE OPTION, MIXELM=0) 
 =  8.029    (WHEN MIN. R.F.=1)  AT K=  16, I=   1, J=  90


 TOTAL NUMBER OF POINT SOURCES/SINKS PRESENT IN THE FLOW MODEL =    30

 MAXIMUM STEPSIZE WHICH MEETS STABILITY CRITERION OF THE SINK & SOURCE TERM
 =  12.20    (WHEN MIN. R.F.=1)  AT K=  17, I=   1, J=  91

 MAXIMUM STEPSIZE WHICH MEETS STABILITY CRITERION OF THE DISPERSION TERM
 =  4.029    (WHEN MIN. R.F.=1)  AT K=  17, I=   1, J=  90
     1 CALLS TO GCG PACKAGE FOR TRANSPORT TIME STEP 577 IN FLOW TIME STEP   1 STRESS PERIOD   1
     8 TOTAL ITERATIONS
     1 CALLS TO GCG PACKAGE FOR TRANSPORT TIME STEP 577 IN FLOW TIME STEP   1 STRESS PERIOD   1
     8 TOTAL ITERATIONS
 
 SOLVING FOR HEAD 


     2 CALLS TO PCG ROUTINE FOR TIME STEP   1 IN STRESS PERIOD    1
     9 TOTAL ITERATIONS

 MAXIMUM HEAD CHANGE FOR EACH ITERATION (1 INDICATES THE FIRST INNER ITERATION):

    HEAD CHANGE    HEAD CHANGE    HEAD CHANGE    HEAD CHANGE    HEAD CHANGE 
   LAYER,ROW,COL  LAYER,ROW,COL  LAYER,ROW,COL  LAYER,ROW,COL  LAYER,ROW,COL
 ---------------------------------------------------------------------------
  1 -0.1364E-01  0 -0.9585E-02  0  0.4076E-02  0  0.1138E-01  0 -0.6661E-02
   ( 15,  1, 86)  ( 11,  1, 58)  (  7,  1, 12)  ( 11,  1, 58)  (  6,  1, 48)
  0 -0.4208E-02  0  0.1457E-02  0  0.7873E-03  1  0.5604E-03
   ( 11,  1, 57)  ( 11,  1, 57)  ( 11,  1, 68)  ( 11,  1, 49)

 MAXIMUM RESIDUAL FOR EACH ITERATION (1 INDICATES THE FIRST INNER ITERATION):

    RESIDUAL       RESIDUAL       RESIDUAL       RESIDUAL       RESIDUAL    
   LAYER,ROW,COL  LAYER,ROW,COL  LAYER,ROW,COL  LAYER,ROW,COL  LAYER,ROW,COL
 ---------------------------------------------------------------------------
  1 -0.1362E+06  0  0.9673E+05  0  0.9593E+05  0  0.7799E+05  0   6569.    
   ( 21,  1, 89)  ( 19,  1, 89)  ( 19,  1, 89)  ( 19,  1, 89)  ( 17,  1, 87)
  0  -3176.      0  -2571.      0  -1324.      1  -1178.    
   ( 17,  1, 88)  ( 22,  1, 87)  ( 22,  1, 87)  ( 22,  1, 87)


 FLOW MODEL IS TRANSIENT
 FLOW MODEL CONTAINS CONSTANT-HEAD CELLS


 MAXIMUM STEPSIZE DURING WHICH ANY PARTICLE CANNOT MOVE MORE THAN ONE CELL
 =  13.15    (WHEN MIN. R.F.=1)  AT K=  17, I=   1, J=  90

 MAXIMUM STEPSIZE WHICH MEETS STABILITY CRITERION OF THE ADVECTION TERM
 (FOR PURE FINITE-DIFFERENCE OPTION, MIXELM=0) 
 =  7.976    (WHEN MIN. R.F.=1)  AT K=  16, I=   1, J=  90


 TOTAL NUMBER OF POINT SOURCES/SINKS PRESENT IN THE FLOW MODEL =    30

 MAXIMUM STEPSIZE WHICH MEETS STABILITY CRITERION OF THE SINK & SOURCE TERM
 =  12.09    (WHEN MIN. R.F.=1)  AT K=  17, I=   1, J=  91

 MAXIMUM STEPSIZE WHICH MEETS STABILITY CRITERION OF THE DISPERSION TERM
 =  4.337    (WHEN MIN. R.F.=1)  AT K=  17, I=   1, J=  90
     1 CALLS TO GCG PACKAGE FOR TRANSPORT TIME STEP 578 IN FLOW TIME STEP   1 STRESS PERIOD   1
    10 TOTAL ITERATIONS
     1 CALLS TO GCG PACKAGE FOR TRANSPORT TIME STEP 578 IN FLOW TIME STEP   1 STRESS PERIOD   1
     8 TOTAL ITERATIONS
 
 SOLVING FOR HEAD 


     2 CALLS TO PCG ROUTINE FOR TIME STEP   1 IN STRESS PERIOD    1
     8 TOTAL ITERATIONS

 MAXIMUM HEAD CHANGE FOR EACH ITERATION (1 INDICATES THE FIRST INNER ITERATION):

    HEAD CHANGE    HEAD CHANGE    HEAD CHANGE    HEAD CHANGE    HEAD CHANGE 
   LAYER,ROW,COL  LAYER,ROW,COL  LAYER,ROW,COL  LAYER,ROW,COL  LAYER,ROW,COL
 ---------------------------------------------------------------------------
  1  0.1374E-01  0 -0.4105E-02  0 -0.3393E-02  0 -0.1098E-01  0  0.1199E-01
   ( 15,  1, 86)  ( 17,  1, 89)  (  8,  1, 12)  ( 11,  1, 50)  ( 11,  1, 50)
  0 -0.1825E-02  0 -0.7393E-03  1 -0.5323E-03
   ( 11,  1, 52)  ( 11,  1, 70)  ( 11,  1, 56)

 MAXIMUM RESIDUAL FOR EACH ITERATION (1 INDICATES THE FIRST INNER ITERATION):

    RESIDUAL       RESIDUAL       RESIDUAL       RESIDUAL       RESIDUAL    
   LAYER,ROW,COL  LAYER,ROW,COL  LAYER,ROW,COL  LAYER,ROW,COL  LAYER,ROW,COL
 ---------------------------------------------------------------------------
  1  0.1339E+06  0 -0.9519E+05  0 -0.9430E+05  0 -0.2325E+05  0   5139.    
   ( 21,  1, 89)  ( 19,  1, 89)  ( 19,  1, 89)  ( 19,  1, 89)  ( 17,  1, 88)
  0   2779.      0   2222.      1   1964.    
   ( 22,  1, 87)  ( 22,  1, 87)  ( 22,  1, 87)


 FLOW MODEL IS TRANSIENT
 FLOW MODEL CONTAINS CONSTANT-HEAD CELLS


 MAXIMUM STEPSIZE DURING WHICH ANY PARTICLE CANNOT MOVE MORE THAN ONE CELL
 =  12.84    (WHEN MIN. R.F.=1)  AT K=  17, I=   1, J=  90

 MAXIMUM STEPSIZE WHICH MEETS STABILITY CRITERION OF THE ADVECTION TERM
 (FOR PURE FINITE-DIFFERENCE OPTION, MIXELM=0) 
 =  8.029    (WHEN MIN. R.F.=1)  AT K=  16, I=   1, J=  90


 TOTAL NUMBER OF POINT SOURCES/SINKS PRESENT IN THE FLOW MODEL =    30

 MAXIMUM STEPSIZE WHICH MEETS STABILITY CRITERION OF THE SINK & SOURCE TERM
 =  12.18    (WHEN MIN. R.F.=1)  AT K=  17, I=   1, J=  91

 MAXIMUM STEPSIZE WHICH MEETS STABILITY CRITERION OF THE DISPERSION TERM
 =  4.022    (WHEN MIN. R.F.=1)  AT K=  17, I=   1, J=  90
     1 CALLS TO GCG PACKAGE FOR TRANSPORT TIME STEP 579 IN FLOW TIME STEP   1 STRESS PERIOD   1
     8 TOTAL ITERATIONS
     1 CALLS TO GCG PACKAGE FOR TRANSPORT TIME STEP 579 IN FLOW TIME STEP   1 STRESS PERIOD   1
     8 TOTAL ITERATIONS
 
 SOLVING FOR HEAD 


     2 CALLS TO PCG ROUTINE FOR TIME STEP   1 IN STRESS PERIOD    1
     9 TOTAL ITERATIONS

 MAXIMUM HEAD CHANGE FOR EACH ITERATION (1 INDICATES THE FIRST INNER ITERATION):

    HEAD CHANGE    HEAD CHANGE    HEAD CHANGE    HEAD CHANGE    HEAD CHANGE 
   LAYER,ROW,COL  LAYER,ROW,COL  LAYER,ROW,COL  LAYER,ROW,COL  LAYER,ROW,COL
 ---------------------------------------------------------------------------
  1 -0.1363E-01  0 -0.4385E-02  0  0.4417E-02  0 -0.9313E-02  0  0.8002E-02
   ( 15,  1, 86)  (  8,  1, 12)  (  8,  1, 12)  ( 11,  1, 67)  (  6,  1, 43)
  0  0.2732E-02  0  0.1410E-02  0  0.6835E-03  1 -0.7208E-03
   ( 11,  1, 49)  ( 11,  1, 57)  ( 11,  1, 70)  ( 11,  1, 70)

 MAXIMUM RESIDUAL FOR EACH ITERATION (1 INDICATES THE FIRST INNER ITERATION):

    RESIDUAL       RESIDUAL       RESIDUAL       RESIDUAL       RESIDUAL    
   LAYER,ROW,COL  LAYER,ROW,COL  LAYER,ROW,COL  LAYER,ROW,COL  LAYER,ROW,COL
 ---------------------------------------------------------------------------
  1 -0.1326E+06  0  0.9353E+05  0  0.9287E+05  0  0.5279E+05  0   5984.    
   ( 21,  1, 89)  ( 19,  1, 89)  ( 19,  1, 89)  ( 19,  1, 89)  ( 17,  1, 87)
  0  -2790.      0  -2589.      0  -823.1      1  -718.1    
   ( 22,  1, 87)  ( 22,  1, 87)  ( 22,  1, 87)  ( 22,  1, 87)


 FLOW MODEL IS TRANSIENT
 FLOW MODEL CONTAINS CONSTANT-HEAD CELLS


 MAXIMUM STEPSIZE DURING WHICH ANY PARTICLE CANNOT MOVE MORE THAN ONE CELL
 =  13.18    (WHEN MIN. R.F.=1)  AT K=  17, I=   1, J=  90

 MAXIMUM STEPSIZE WHICH MEETS STABILITY CRITERION OF THE ADVECTION TERM
 (FOR PURE FINITE-DIFFERENCE OPTION, MIXELM=0) 
 =  7.985    (WHEN MIN. R.F.=1)  AT K=  16, I=   1, J=  90


 TOTAL NUMBER OF POINT SOURCES/SINKS PRESENT IN THE FLOW MODEL =    30

 MAXIMUM STEPSIZE WHICH MEETS STABILITY CRITERION OF THE SINK & SOURCE TERM
 =  12.12    (WHEN MIN. R.F.=1)  AT K=  17, I=   1, J=  91

 MAXIMUM STEPSIZE WHICH MEETS STABILITY CRITERION OF THE DISPERSION TERM
 =  4.357    (WHEN MIN. R.F.=1)  AT K=  17, I=   1, J=  90
     1 CALLS TO GCG PACKAGE FOR TRANSPORT TIME STEP 580 IN FLOW TIME STEP   1 STRESS PERIOD   1
     9 TOTAL ITERATIONS
  MAXIMUM CONCENTRATION CHANGES FOR EACH ITERATION:
  MAX. CHANGE LAYER,ROW,COL MAX. CHANGE LAYER,ROW,COL MAX. CHANGE LAYER,ROW,COL MAX. CHANGE LAYER,ROW,COL MAX. CHANGE LAYER,ROW,COL
 ------------------------------------------------------------------------------------------------------------------------------------
   0.4891E-01 ( 20,  1, 87)  0.3302E-02 ( 19,  1, 87)  0.2179E-02 ( 18,  1, 87)  0.2127E-03 ( 16,  1, 88)  0.1414E-03 ( 17,  1, 89)
   0.2907E-04 ( 16,  1, 90)  0.1650E-05 ( 21,  1, 78)  0.5731E-05 ( 21,  1, 78)  0.9789E-06 ( 16,  1, 89)
     1 CALLS TO GCG PACKAGE FOR TRANSPORT TIME STEP 580 IN FLOW TIME STEP   1 STRESS PERIOD   1
     8 TOTAL ITERATIONS
  MAXIMUM CONCENTRATION CHANGES FOR EACH ITERATION:
  MAX. CHANGE LAYER,ROW,COL MAX. CHANGE LAYER,ROW,COL MAX. CHANGE LAYER,ROW,COL MAX. CHANGE LAYER,ROW,COL MAX. CHANGE LAYER,ROW,COL
 ------------------------------------------------------------------------------------------------------------------------------------
   0.5537E-01 ( 20,  1, 87)  0.3859E-02 ( 19,  1, 87)  0.2297E-02 ( 18,  1, 87)  0.2376E-03 ( 23,  1, 88)  0.1367E-03 ( 17,  1, 89)
   0.3613E-04 ( 16,  1, 90)  0.5135E-05 ( 17,  1, 90)  0.6189E-06 ( 16,  1, 89)



 >>>>>>>>>>>>>>>>>>>>>>>>>>>>>>>>>>>>>>>>>>>>>>>>>>>>>>>FOR COMPONENT NO. 01<<<<<<<<<<<<<<<<<<<<<<<<<<<<<<<<<<<<<<<<<<<<<<<<<<<<<<<


                                            -------------------------------------------
                                                      TRANSPORT STEP NO.  580
                                            -------------------------------------------

 TOTAL ELAPSED TIME SINCE BEGINNING OF SIMULATION =   29000.00    D   
 .....................................................................

                     CUMMULATIVE MASS BUDGETS AT END OF TRANSPORT STEP  580, TIME STEP    1, STRESS PERIOD    1
                     ------------------------------------------------------------------------------------------

                                                             IN                           OUT
                                                      ----------------             ----------------
                               CONSTANT CONCENTRATION:    0.000000                    0.000000    
                                        CONSTANT HEAD:   0.1147510E+10              -0.1147304E+10
                                                WELLS:    0.000000                    0.000000    
                                             RECHARGE:    0.000000                    0.000000    
                               1ST/0TH ORDER REACTION:    0.000000                    0.000000    
                                MASS STORAGE (SOLUTE):   0.1604425E+09              -0.1606484E+09
                            ---------------------------------------------------------------------------
                                              [TOTAL]:   0.1307953E+10 KG           -0.1307953E+10 KG  

                                                          NET (IN - OUT):   -224.8070    
                                                   DISCREPANCY (PERCENT):  -0.1718770E-04



 >>>>>>>>>>>>>>>>>>>>>>>>>>>>>>>>>>>>>>>>>>>>>>>>>>>>>>>FOR COMPONENT NO. 02<<<<<<<<<<<<<<<<<<<<<<<<<<<<<<<<<<<<<<<<<<<<<<<<<<<<<<<


                                            -------------------------------------------
                                                      TRANSPORT STEP NO.  580
                                            -------------------------------------------

 TOTAL ELAPSED TIME SINCE BEGINNING OF SIMULATION =   29000.00    D   
 .....................................................................

                     CUMMULATIVE MASS BUDGETS AT END OF TRANSPORT STEP  580, TIME STEP    1, STRESS PERIOD    1
                     ------------------------------------------------------------------------------------------

                                                             IN                           OUT
                                                      ----------------             ----------------
                               CONSTANT CONCENTRATION:    0.000000                    0.000000    
                                        CONSTANT HEAD:    0.000000                  -0.1922537E+12
                                                WELLS:    0.000000                    0.000000    
                                             RECHARGE:    0.000000                    0.000000    
                               1ST/0TH ORDER REACTION:   0.4799500E+12                0.000000    
                                MASS STORAGE (SOLUTE):   0.6436522E+11              -0.3520615E+12
                            ---------------------------------------------------------------------------
                                              [TOTAL]:   0.5443162E+12 KG           -0.5443162E+12 KG  

                                                          NET (IN - OUT):   -67390.01    
                                                   DISCREPANCY (PERCENT):  -0.1238067E-04
 
 SOLVING FOR HEAD 


     2 CALLS TO PCG ROUTINE FOR TIME STEP   1 IN STRESS PERIOD    1
     8 TOTAL ITERATIONS

 MAXIMUM HEAD CHANGE FOR EACH ITERATION (1 INDICATES THE FIRST INNER ITERATION):

    HEAD CHANGE    HEAD CHANGE    HEAD CHANGE    HEAD CHANGE    HEAD CHANGE 
   LAYER,ROW,COL  LAYER,ROW,COL  LAYER,ROW,COL  LAYER,ROW,COL  LAYER,ROW,COL
 ---------------------------------------------------------------------------
  1  0.1349E-01  0 -0.4018E-02  0 -0.2788E-02  0 -0.1041E-01  0  0.1161E-01
   ( 15,  1, 86)  ( 17,  1, 89)  (  8,  1, 12)  ( 11,  1, 60)  ( 11,  1, 60)
  0 -0.1808E-02  0 -0.6070E-03  1 -0.5352E-03
   ( 11,  1, 58)  ( 11,  1, 62)  ( 11,  1, 69)

 MAXIMUM RESIDUAL FOR EACH ITERATION (1 INDICATES THE FIRST INNER ITERATION):

    RESIDUAL       RESIDUAL       RESIDUAL       RESIDUAL       RESIDUAL    
   LAYER,ROW,COL  LAYER,ROW,COL  LAYER,ROW,COL  LAYER,ROW,COL  LAYER,ROW,COL
 ---------------------------------------------------------------------------
  1  0.1340E+06  0 -0.9484E+05  0 -0.9376E+05  0 -0.2284E+05  0   5047.    
   ( 21,  1, 89)  ( 19,  1, 89)  ( 19,  1, 89)  ( 19,  1, 89)  ( 17,  1, 88)
  0   2758.      0   2456.      1   2006.    
   ( 22,  1, 87)  ( 22,  1, 87)  ( 22,  1, 87)


 FLOW MODEL IS TRANSIENT
 FLOW MODEL CONTAINS CONSTANT-HEAD CELLS


 MAXIMUM STEPSIZE DURING WHICH ANY PARTICLE CANNOT MOVE MORE THAN ONE CELL
 =  12.82    (WHEN MIN. R.F.=1)  AT K=  17, I=   1, J=  90

 MAXIMUM STEPSIZE WHICH MEETS STABILITY CRITERION OF THE ADVECTION TERM
 (FOR PURE FINITE-DIFFERENCE OPTION, MIXELM=0) 
 =  8.023    (WHEN MIN. R.F.=1)  AT K=  16, I=   1, J=  90


 TOTAL NUMBER OF POINT SOURCES/SINKS PRESENT IN THE FLOW MODEL =    30

 MAXIMUM STEPSIZE WHICH MEETS STABILITY CRITERION OF THE SINK & SOURCE TERM
 =  12.18    (WHEN MIN. R.F.=1)  AT K=  17, I=   1, J=  91

 MAXIMUM STEPSIZE WHICH MEETS STABILITY CRITERION OF THE DISPERSION TERM
 =  4.017    (WHEN MIN. R.F.=1)  AT K=  17, I=   1, J=  90
     1 CALLS TO GCG PACKAGE FOR TRANSPORT TIME STEP 581 IN FLOW TIME STEP   1 STRESS PERIOD   1
     8 TOTAL ITERATIONS
     1 CALLS TO GCG PACKAGE FOR TRANSPORT TIME STEP 581 IN FLOW TIME STEP   1 STRESS PERIOD   1
     8 TOTAL ITERATIONS
 
 SOLVING FOR HEAD 


     2 CALLS TO PCG ROUTINE FOR TIME STEP   1 IN STRESS PERIOD    1
     9 TOTAL ITERATIONS

 MAXIMUM HEAD CHANGE FOR EACH ITERATION (1 INDICATES THE FIRST INNER ITERATION):

    HEAD CHANGE    HEAD CHANGE    HEAD CHANGE    HEAD CHANGE    HEAD CHANGE 
   LAYER,ROW,COL  LAYER,ROW,COL  LAYER,ROW,COL  LAYER,ROW,COL  LAYER,ROW,COL
 ---------------------------------------------------------------------------
  1 -0.1365E-01  0 -0.7037E-02  0  0.4137E-02  0  0.8824E-02  0 -0.6428E-02
   ( 15,  1, 86)  (  5,  1, 47)  (  7,  1, 12)  (  8,  1, 49)  (  7,  1, 47)
  0  0.5004E-02  0 -0.1488E-02  0 -0.5796E-03  1  0.6938E-03
   ( 11,  1, 62)  ( 11,  1, 62)  ( 11,  1, 49)  ( 11,  1, 49)

 MAXIMUM RESIDUAL FOR EACH ITERATION (1 INDICATES THE FIRST INNER ITERATION):

    RESIDUAL       RESIDUAL       RESIDUAL       RESIDUAL       RESIDUAL    
   LAYER,ROW,COL  LAYER,ROW,COL  LAYER,ROW,COL  LAYER,ROW,COL  LAYER,ROW,COL
 ---------------------------------------------------------------------------
  1 -0.1334E+06  0  0.9380E+05  0  0.9307E+05  0  0.7477E+05  0   6552.    
   ( 21,  1, 89)  ( 19,  1, 89)  ( 19,  1, 89)  ( 19,  1, 89)  ( 17,  1, 87)
  0  -3041.      0  -2560.      0  -1133.      1  -1011.    
   ( 17,  1, 88)  ( 22,  1, 87)  ( 22,  1, 87)  ( 22,  1, 87)


 FLOW MODEL IS TRANSIENT
 FLOW MODEL CONTAINS CONSTANT-HEAD CELLS


 MAXIMUM STEPSIZE DURING WHICH ANY PARTICLE CANNOT MOVE MORE THAN ONE CELL
 =  13.16    (WHEN MIN. R.F.=1)  AT K=  17, I=   1, J=  90

 MAXIMUM STEPSIZE WHICH MEETS STABILITY CRITERION OF THE ADVECTION TERM
 (FOR PURE FINITE-DIFFERENCE OPTION, MIXELM=0) 
 =  7.978    (WHEN MIN. R.F.=1)  AT K=  16, I=   1, J=  90


 TOTAL NUMBER OF POINT SOURCES/SINKS PRESENT IN THE FLOW MODEL =    30

 MAXIMUM STEPSIZE WHICH MEETS STABILITY CRITERION OF THE SINK & SOURCE TERM
 =  12.10    (WHEN MIN. R.F.=1)  AT K=  17, I=   1, J=  91

 MAXIMUM STEPSIZE WHICH MEETS STABILITY CRITERION OF THE DISPERSION TERM
 =  4.349    (WHEN MIN. R.F.=1)  AT K=  17, I=   1, J=  90
     1 CALLS TO GCG PACKAGE FOR TRANSPORT TIME STEP 582 IN FLOW TIME STEP   1 STRESS PERIOD   1
    10 TOTAL ITERATIONS
     1 CALLS TO GCG PACKAGE FOR TRANSPORT TIME STEP 582 IN FLOW TIME STEP   1 STRESS PERIOD   1
     8 TOTAL ITERATIONS
 
 SOLVING FOR HEAD 


     2 CALLS TO PCG ROUTINE FOR TIME STEP   1 IN STRESS PERIOD    1
     8 TOTAL ITERATIONS

 MAXIMUM HEAD CHANGE FOR EACH ITERATION (1 INDICATES THE FIRST INNER ITERATION):

    HEAD CHANGE    HEAD CHANGE    HEAD CHANGE    HEAD CHANGE    HEAD CHANGE 
   LAYER,ROW,COL  LAYER,ROW,COL  LAYER,ROW,COL  LAYER,ROW,COL  LAYER,ROW,COL
 ---------------------------------------------------------------------------
  1  0.1364E-01  0 -0.4139E-02  0 -0.3208E-02  0 -0.9941E-02  0  0.1141E-01
   ( 15,  1, 86)  ( 17,  1, 89)  (  8,  1, 12)  ( 11,  1, 50)  ( 11,  1, 50)
  0 -0.2072E-02  0 -0.9104E-03  1 -0.8455E-03
   ( 11,  1, 51)  ( 11,  1, 70)  ( 11,  1, 56)

 MAXIMUM RESIDUAL FOR EACH ITERATION (1 INDICATES THE FIRST INNER ITERATION):

    RESIDUAL       RESIDUAL       RESIDUAL       RESIDUAL       RESIDUAL    
   LAYER,ROW,COL  LAYER,ROW,COL  LAYER,ROW,COL  LAYER,ROW,COL  LAYER,ROW,COL
 ---------------------------------------------------------------------------
  1  0.1337E+06  0 -0.9473E+05  0 -0.9380E+05  0 -0.2030E+05  0   5060.    
   ( 21,  1, 89)  ( 19,  1, 89)  ( 19,  1, 89)  ( 19,  1, 89)  ( 17,  1, 88)
  0   2771.      0   2097.      1   1847.    
   ( 22,  1, 87)  ( 22,  1, 87)  ( 22,  1, 87)


 FLOW MODEL IS TRANSIENT
 FLOW MODEL CONTAINS CONSTANT-HEAD CELLS


 MAXIMUM STEPSIZE DURING WHICH ANY PARTICLE CANNOT MOVE MORE THAN ONE CELL
 =  12.84    (WHEN MIN. R.F.=1)  AT K=  17, I=   1, J=  90

 MAXIMUM STEPSIZE WHICH MEETS STABILITY CRITERION OF THE ADVECTION TERM
 (FOR PURE FINITE-DIFFERENCE OPTION, MIXELM=0) 
 =  8.027    (WHEN MIN. R.F.=1)  AT K=  16, I=   1, J=  90


 TOTAL NUMBER OF POINT SOURCES/SINKS PRESENT IN THE FLOW MODEL =    30

 MAXIMUM STEPSIZE WHICH MEETS STABILITY CRITERION OF THE SINK & SOURCE TERM
 =  12.19    (WHEN MIN. R.F.=1)  AT K=  17, I=   1, J=  91

 MAXIMUM STEPSIZE WHICH MEETS STABILITY CRITERION OF THE DISPERSION TERM
 =  4.022    (WHEN MIN. R.F.=1)  AT K=  17, I=   1, J=  90
     1 CALLS TO GCG PACKAGE FOR TRANSPORT TIME STEP 583 IN FLOW TIME STEP   1 STRESS PERIOD   1
     8 TOTAL ITERATIONS
     1 CALLS TO GCG PACKAGE FOR TRANSPORT TIME STEP 583 IN FLOW TIME STEP   1 STRESS PERIOD   1
     8 TOTAL ITERATIONS
 
 SOLVING FOR HEAD 


     2 CALLS TO PCG ROUTINE FOR TIME STEP   1 IN STRESS PERIOD    1
     8 TOTAL ITERATIONS

 MAXIMUM HEAD CHANGE FOR EACH ITERATION (1 INDICATES THE FIRST INNER ITERATION):

    HEAD CHANGE    HEAD CHANGE    HEAD CHANGE    HEAD CHANGE    HEAD CHANGE 
   LAYER,ROW,COL  LAYER,ROW,COL  LAYER,ROW,COL  LAYER,ROW,COL  LAYER,ROW,COL
 ---------------------------------------------------------------------------
  1 -0.1363E-01  0 -0.4604E-02  0  0.3930E-02  0  0.1597E-01  0 -0.1512E-01
   ( 15,  1, 86)  ( 11,  1, 56)  (  8,  1, 12)  ( 11,  1, 57)  ( 11,  1, 57)
  0 -0.1808E-02  0  0.8525E-03  1  0.5617E-03
   ( 11,  1, 37)  ( 11,  1, 37)  ( 11,  1, 66)

 MAXIMUM RESIDUAL FOR EACH ITERATION (1 INDICATES THE FIRST INNER ITERATION):

    RESIDUAL       RESIDUAL       RESIDUAL       RESIDUAL       RESIDUAL    
   LAYER,ROW,COL  LAYER,ROW,COL  LAYER,ROW,COL  LAYER,ROW,COL  LAYER,ROW,COL
 ---------------------------------------------------------------------------
  1 -0.1331E+06  0  0.9400E+05  0  0.9324E+05  0  0.4043E+05  0   5537.    
   ( 21,  1, 89)  ( 19,  1, 89)  ( 19,  1, 89)  ( 19,  1, 89)  ( 17,  1, 87)
  0  -2761.      0  -2548.      1  -1847.    
   ( 22,  1, 87)  ( 22,  1, 87)  ( 22,  1, 87)


 FLOW MODEL IS TRANSIENT
 FLOW MODEL CONTAINS CONSTANT-HEAD CELLS


 MAXIMUM STEPSIZE DURING WHICH ANY PARTICLE CANNOT MOVE MORE THAN ONE CELL
 =  13.19    (WHEN MIN. R.F.=1)  AT K=  17, I=   1, J=  90

 MAXIMUM STEPSIZE WHICH MEETS STABILITY CRITERION OF THE ADVECTION TERM
 (FOR PURE FINITE-DIFFERENCE OPTION, MIXELM=0) 
 =  7.989    (WHEN MIN. R.F.=1)  AT K=  16, I=   1, J=  90


 TOTAL NUMBER OF POINT SOURCES/SINKS PRESENT IN THE FLOW MODEL =    30

 MAXIMUM STEPSIZE WHICH MEETS STABILITY CRITERION OF THE SINK & SOURCE TERM
 =  12.13    (WHEN MIN. R.F.=1)  AT K=  17, I=   1, J=  91

 MAXIMUM STEPSIZE WHICH MEETS STABILITY CRITERION OF THE DISPERSION TERM
 =  4.361    (WHEN MIN. R.F.=1)  AT K=  17, I=   1, J=  90
     1 CALLS TO GCG PACKAGE FOR TRANSPORT TIME STEP 584 IN FLOW TIME STEP   1 STRESS PERIOD   1
    10 TOTAL ITERATIONS
     1 CALLS TO GCG PACKAGE FOR TRANSPORT TIME STEP 584 IN FLOW TIME STEP   1 STRESS PERIOD   1
     8 TOTAL ITERATIONS
 
 SOLVING FOR HEAD 


     2 CALLS TO PCG ROUTINE FOR TIME STEP   1 IN STRESS PERIOD    1
     9 TOTAL ITERATIONS

 MAXIMUM HEAD CHANGE FOR EACH ITERATION (1 INDICATES THE FIRST INNER ITERATION):

    HEAD CHANGE    HEAD CHANGE    HEAD CHANGE    HEAD CHANGE    HEAD CHANGE 
   LAYER,ROW,COL  LAYER,ROW,COL  LAYER,ROW,COL  LAYER,ROW,COL  LAYER,ROW,COL
 ---------------------------------------------------------------------------
  1  0.1379E-01  0  0.8388E-02  0 -0.3890E-02  0 -0.7821E-02  0  0.5465E-02
   ( 15,  1, 86)  (  5,  1, 42)  (  7,  1, 12)  (  6,  1, 44)  (  9,  1, 52)
  0 -0.4488E-02  0  0.1512E-02  0 -0.6253E-03  1  0.5037E-03
   ( 11,  1, 57)  ( 11,  1, 57)  ( 11,  1, 62)  ( 11,  1, 49)

 MAXIMUM RESIDUAL FOR EACH ITERATION (1 INDICATES THE FIRST INNER ITERATION):

    RESIDUAL       RESIDUAL       RESIDUAL       RESIDUAL       RESIDUAL    
   LAYER,ROW,COL  LAYER,ROW,COL  LAYER,ROW,COL  LAYER,ROW,COL  LAYER,ROW,COL
 ---------------------------------------------------------------------------
  1  0.1356E+06  0 -0.9602E+05  0 -0.9517E+05  0 -0.8146E+05  0   6471.    
   ( 21,  1, 89)  ( 19,  1, 89)  ( 19,  1, 89)  ( 19,  1, 89)  ( 17,  1, 88)
  0   3118.      0   2542.      0   952.2      1   838.0    
   ( 17,  1, 88)  ( 22,  1, 87)  ( 22,  1, 87)  ( 22,  1, 87)


 FLOW MODEL IS TRANSIENT
 FLOW MODEL CONTAINS CONSTANT-HEAD CELLS


 MAXIMUM STEPSIZE DURING WHICH ANY PARTICLE CANNOT MOVE MORE THAN ONE CELL
 =  12.88    (WHEN MIN. R.F.=1)  AT K=  17, I=   1, J=  90

 MAXIMUM STEPSIZE WHICH MEETS STABILITY CRITERION OF THE ADVECTION TERM
 (FOR PURE FINITE-DIFFERENCE OPTION, MIXELM=0) 
 =  8.048    (WHEN MIN. R.F.=1)  AT K=  16, I=   1, J=  90


 TOTAL NUMBER OF POINT SOURCES/SINKS PRESENT IN THE FLOW MODEL =    30

 MAXIMUM STEPSIZE WHICH MEETS STABILITY CRITERION OF THE SINK & SOURCE TERM
 =  12.24    (WHEN MIN. R.F.=1)  AT K=  17, I=   1, J=  91

 MAXIMUM STEPSIZE WHICH MEETS STABILITY CRITERION OF THE DISPERSION TERM
 =  4.036    (WHEN MIN. R.F.=1)  AT K=  17, I=   1, J=  90
     1 CALLS TO GCG PACKAGE FOR TRANSPORT TIME STEP 585 IN FLOW TIME STEP   1 STRESS PERIOD   1
     8 TOTAL ITERATIONS
  MAXIMUM CONCENTRATION CHANGES FOR EACH ITERATION:
  MAX. CHANGE LAYER,ROW,COL MAX. CHANGE LAYER,ROW,COL MAX. CHANGE LAYER,ROW,COL MAX. CHANGE LAYER,ROW,COL MAX. CHANGE LAYER,ROW,COL
 ------------------------------------------------------------------------------------------------------------------------------------
   0.5216E-01 ( 20,  1, 87)  0.4316E-02 ( 19,  1, 89)  0.2062E-02 ( 17,  1, 86)  0.4926E-03 ( 20,  1, 89)  0.8989E-04 ( 16,  1, 89)
   0.2043E-04 ( 20,  1, 89)  0.2333E-04 ( 16,  1, 90)  0.6936E-06 ( 17,  1, 90)
     1 CALLS TO GCG PACKAGE FOR TRANSPORT TIME STEP 585 IN FLOW TIME STEP   1 STRESS PERIOD   1
     8 TOTAL ITERATIONS
  MAXIMUM CONCENTRATION CHANGES FOR EACH ITERATION:
  MAX. CHANGE LAYER,ROW,COL MAX. CHANGE LAYER,ROW,COL MAX. CHANGE LAYER,ROW,COL MAX. CHANGE LAYER,ROW,COL MAX. CHANGE LAYER,ROW,COL
 ------------------------------------------------------------------------------------------------------------------------------------
   0.5918E-01 ( 20,  1, 87)  0.5064E-02 ( 19,  1, 89)  0.2017E-02 ( 18,  1, 86)  0.4274E-03 ( 20,  1, 89)  0.1117E-03 ( 16,  1, 89)
   0.2230E-04 ( 23,  1, 87)  0.1995E-04 ( 16,  1, 90)  0.8313E-06 ( 17,  1, 90)
 
 SOLVING FOR HEAD 


     2 CALLS TO PCG ROUTINE FOR TIME STEP   1 IN STRESS PERIOD    1
     9 TOTAL ITERATIONS

 MAXIMUM HEAD CHANGE FOR EACH ITERATION (1 INDICATES THE FIRST INNER ITERATION):

    HEAD CHANGE    HEAD CHANGE    HEAD CHANGE    HEAD CHANGE    HEAD CHANGE 
   LAYER,ROW,COL  LAYER,ROW,COL  LAYER,ROW,COL  LAYER,ROW,COL  LAYER,ROW,COL
 ---------------------------------------------------------------------------
  1 -0.1350E-01  0  0.4001E-02  0  0.3065E-02  0 -0.9185E-02  0  0.9439E-02
   ( 15,  1, 86)  ( 17,  1, 89)  (  8,  1, 12)  ( 11,  1, 50)  ( 11,  1, 50)
  0 -0.1967E-02  0  0.1067E-02  0  0.7379E-03  1 -0.5916E-03
   ( 11,  1, 54)  ( 11,  1, 55)  ( 11,  1, 63)  ( 11,  1, 70)

 MAXIMUM RESIDUAL FOR EACH ITERATION (1 INDICATES THE FIRST INNER ITERATION):

    RESIDUAL       RESIDUAL       RESIDUAL       RESIDUAL       RESIDUAL    
   LAYER,ROW,COL  LAYER,ROW,COL  LAYER,ROW,COL  LAYER,ROW,COL  LAYER,ROW,COL
 ---------------------------------------------------------------------------
  1 -0.1340E+06  0  0.9525E+05  0  0.9426E+05  0  0.2371E+05  0   5162.    
   ( 21,  1, 89)  ( 19,  1, 89)  ( 19,  1, 89)  ( 19,  1, 89)  ( 17,  1, 87)
  0  -2772.      0  -2363.      0  -687.7      1  -558.2    
   ( 22,  1, 87)  ( 22,  1, 87)  ( 22,  1, 87)  ( 22,  1, 87)


 FLOW MODEL IS TRANSIENT
 FLOW MODEL CONTAINS CONSTANT-HEAD CELLS


 MAXIMUM STEPSIZE DURING WHICH ANY PARTICLE CANNOT MOVE MORE THAN ONE CELL
 =  13.24    (WHEN MIN. R.F.=1)  AT K=  17, I=   1, J=  90

 MAXIMUM STEPSIZE WHICH MEETS STABILITY CRITERION OF THE ADVECTION TERM
 (FOR PURE FINITE-DIFFERENCE OPTION, MIXELM=0) 
 =  8.008    (WHEN MIN. R.F.=1)  AT K=  16, I=   1, J=  90


 TOTAL NUMBER OF POINT SOURCES/SINKS PRESENT IN THE FLOW MODEL =    30

 MAXIMUM STEPSIZE WHICH MEETS STABILITY CRITERION OF THE SINK & SOURCE TERM
 =  12.20    (WHEN MIN. R.F.=1)  AT K=  17, I=   1, J=  91

 MAXIMUM STEPSIZE WHICH MEETS STABILITY CRITERION OF THE DISPERSION TERM
 =  4.384    (WHEN MIN. R.F.=1)  AT K=  17, I=   1, J=  90
     1 CALLS TO GCG PACKAGE FOR TRANSPORT TIME STEP 586 IN FLOW TIME STEP   1 STRESS PERIOD   1
     9 TOTAL ITERATIONS
     1 CALLS TO GCG PACKAGE FOR TRANSPORT TIME STEP 586 IN FLOW TIME STEP   1 STRESS PERIOD   1
     8 TOTAL ITERATIONS
 
 SOLVING FOR HEAD 


     2 CALLS TO PCG ROUTINE FOR TIME STEP   1 IN STRESS PERIOD    1
     8 TOTAL ITERATIONS

 MAXIMUM HEAD CHANGE FOR EACH ITERATION (1 INDICATES THE FIRST INNER ITERATION):

    HEAD CHANGE    HEAD CHANGE    HEAD CHANGE    HEAD CHANGE    HEAD CHANGE 
   LAYER,ROW,COL  LAYER,ROW,COL  LAYER,ROW,COL  LAYER,ROW,COL  LAYER,ROW,COL
 ---------------------------------------------------------------------------
  1  0.1336E-01  0 -0.3740E-02  0 -0.2454E-02  0  0.4744E-02  0 -0.5086E-02
   ( 15,  1, 86)  ( 17,  1, 89)  (  7,  1, 12)  ( 11,  1, 63)  ( 11,  1, 62)
  0 -0.1450E-02  0 -0.7330E-03  1 -0.6513E-03
   (  6,  1, 38)  ( 11,  1, 38)  ( 11,  1, 63)

 MAXIMUM RESIDUAL FOR EACH ITERATION (1 INDICATES THE FIRST INNER ITERATION):

    RESIDUAL       RESIDUAL       RESIDUAL       RESIDUAL       RESIDUAL    
   LAYER,ROW,COL  LAYER,ROW,COL  LAYER,ROW,COL  LAYER,ROW,COL  LAYER,ROW,COL
 ---------------------------------------------------------------------------
  1  0.1344E+06  0 -0.9431E+05  0 -0.9155E+05  0 -0.1468E+05  0  -4368.    
   ( 21,  1, 89)  ( 19,  1, 89)  ( 19,  1, 89)  ( 19,  1, 89)  ( 17,  1, 87)
  0   2874.      0   2447.      1   2099.    
   ( 22,  1, 87)  ( 22,  1, 87)  ( 22,  1, 87)


 FLOW MODEL IS TRANSIENT
 FLOW MODEL CONTAINS CONSTANT-HEAD CELLS


 MAXIMUM STEPSIZE DURING WHICH ANY PARTICLE CANNOT MOVE MORE THAN ONE CELL
 =  12.83    (WHEN MIN. R.F.=1)  AT K=  17, I=   1, J=  90

 MAXIMUM STEPSIZE WHICH MEETS STABILITY CRITERION OF THE ADVECTION TERM
 (FOR PURE FINITE-DIFFERENCE OPTION, MIXELM=0) 
 =  8.025    (WHEN MIN. R.F.=1)  AT K=  16, I=   1, J=  90


 TOTAL NUMBER OF POINT SOURCES/SINKS PRESENT IN THE FLOW MODEL =    30

 MAXIMUM STEPSIZE WHICH MEETS STABILITY CRITERION OF THE SINK & SOURCE TERM
 =  12.20    (WHEN MIN. R.F.=1)  AT K=  17, I=   1, J=  91

 MAXIMUM STEPSIZE WHICH MEETS STABILITY CRITERION OF THE DISPERSION TERM
 =  4.022    (WHEN MIN. R.F.=1)  AT K=  17, I=   1, J=  90
     1 CALLS TO GCG PACKAGE FOR TRANSPORT TIME STEP 587 IN FLOW TIME STEP   1 STRESS PERIOD   1
     8 TOTAL ITERATIONS
     1 CALLS TO GCG PACKAGE FOR TRANSPORT TIME STEP 587 IN FLOW TIME STEP   1 STRESS PERIOD   1
     8 TOTAL ITERATIONS
 
 SOLVING FOR HEAD 


     2 CALLS TO PCG ROUTINE FOR TIME STEP   1 IN STRESS PERIOD    1
     9 TOTAL ITERATIONS

 MAXIMUM HEAD CHANGE FOR EACH ITERATION (1 INDICATES THE FIRST INNER ITERATION):

    HEAD CHANGE    HEAD CHANGE    HEAD CHANGE    HEAD CHANGE    HEAD CHANGE 
   LAYER,ROW,COL  LAYER,ROW,COL  LAYER,ROW,COL  LAYER,ROW,COL  LAYER,ROW,COL
 ---------------------------------------------------------------------------
  1 -0.1373E-01  0 -0.6012E-02  0  0.4880E-02  0  0.9063E-02  0 -0.7484E-02
   ( 15,  1, 86)  (  5,  1, 44)  (  8,  1, 12)  ( 10,  1, 51)  (  9,  1, 51)
  0  0.3636E-02  0  0.1435E-02  0  0.5902E-03  1 -0.4556E-03
   ( 11,  1, 69)  ( 11,  1, 62)  ( 11,  1, 65)  ( 11,  1, 65)

 MAXIMUM RESIDUAL FOR EACH ITERATION (1 INDICATES THE FIRST INNER ITERATION):

    RESIDUAL       RESIDUAL       RESIDUAL       RESIDUAL       RESIDUAL    
   LAYER,ROW,COL  LAYER,ROW,COL  LAYER,ROW,COL  LAYER,ROW,COL  LAYER,ROW,COL
 ---------------------------------------------------------------------------
  1 -0.1369E+06  0  0.9692E+05  0  0.9631E+05  0  0.7108E+05  0   6167.    
   ( 21,  1, 89)  ( 19,  1, 89)  ( 19,  1, 89)  ( 19,  1, 89)  ( 17,  1, 87)
  0  -2833.      0  -2557.      0  -885.7      1  -779.6    
   ( 17,  1, 88)  ( 22,  1, 87)  ( 22,  1, 87)  ( 22,  1, 87)


 FLOW MODEL IS TRANSIENT
 FLOW MODEL CONTAINS CONSTANT-HEAD CELLS


 MAXIMUM STEPSIZE DURING WHICH ANY PARTICLE CANNOT MOVE MORE THAN ONE CELL
 =  13.15    (WHEN MIN. R.F.=1)  AT K=  17, I=   1, J=  90

 MAXIMUM STEPSIZE WHICH MEETS STABILITY CRITERION OF THE ADVECTION TERM
 (FOR PURE FINITE-DIFFERENCE OPTION, MIXELM=0) 
 =  7.973    (WHEN MIN. R.F.=1)  AT K=  16, I=   1, J=  90


 TOTAL NUMBER OF POINT SOURCES/SINKS PRESENT IN THE FLOW MODEL =    30

 MAXIMUM STEPSIZE WHICH MEETS STABILITY CRITERION OF THE SINK & SOURCE TERM
 =  12.08    (WHEN MIN. R.F.=1)  AT K=  17, I=   1, J=  91

 MAXIMUM STEPSIZE WHICH MEETS STABILITY CRITERION OF THE DISPERSION TERM
 =  4.340    (WHEN MIN. R.F.=1)  AT K=  17, I=   1, J=  90
     1 CALLS TO GCG PACKAGE FOR TRANSPORT TIME STEP 588 IN FLOW TIME STEP   1 STRESS PERIOD   1
    10 TOTAL ITERATIONS
     1 CALLS TO GCG PACKAGE FOR TRANSPORT TIME STEP 588 IN FLOW TIME STEP   1 STRESS PERIOD   1
     8 TOTAL ITERATIONS
 
 SOLVING FOR HEAD 


     2 CALLS TO PCG ROUTINE FOR TIME STEP   1 IN STRESS PERIOD    1
     9 TOTAL ITERATIONS

 MAXIMUM HEAD CHANGE FOR EACH ITERATION (1 INDICATES THE FIRST INNER ITERATION):

    HEAD CHANGE    HEAD CHANGE    HEAD CHANGE    HEAD CHANGE    HEAD CHANGE 
   LAYER,ROW,COL  LAYER,ROW,COL  LAYER,ROW,COL  LAYER,ROW,COL  LAYER,ROW,COL
 ---------------------------------------------------------------------------
  1  0.1365E-01  0 -0.4074E-02  0 -0.2984E-02  0 -0.1065E-01  0  0.1227E-01
   ( 15,  1, 86)  ( 17,  1, 89)  (  8,  1, 12)  ( 11,  1, 57)  ( 11,  1, 57)
  0 -0.2322E-02  0 -0.1258E-02  0 -0.6626E-03  1  0.6095E-03
   ( 11,  1, 57)  ( 11,  1, 70)  ( 11,  1, 50)  ( 11,  1, 70)

 MAXIMUM RESIDUAL FOR EACH ITERATION (1 INDICATES THE FIRST INNER ITERATION):

    RESIDUAL       RESIDUAL       RESIDUAL       RESIDUAL       RESIDUAL    
   LAYER,ROW,COL  LAYER,ROW,COL  LAYER,ROW,COL  LAYER,ROW,COL  LAYER,ROW,COL
 ---------------------------------------------------------------------------
  1  0.1340E+06  0 -0.9521E+05  0 -0.9420E+05  0 -0.2148E+05  0   4934.    
   ( 21,  1, 89)  ( 19,  1, 89)  ( 19,  1, 89)  ( 19,  1, 89)  ( 17,  1, 88)
  0   2779.      0   2102.      0   703.4      1   595.6    
   ( 22,  1, 87)  ( 22,  1, 87)  ( 22,  1, 87)  ( 22,  1, 87)


 FLOW MODEL IS TRANSIENT
 FLOW MODEL CONTAINS CONSTANT-HEAD CELLS


 MAXIMUM STEPSIZE DURING WHICH ANY PARTICLE CANNOT MOVE MORE THAN ONE CELL
 =  12.84    (WHEN MIN. R.F.=1)  AT K=  17, I=   1, J=  90

 MAXIMUM STEPSIZE WHICH MEETS STABILITY CRITERION OF THE ADVECTION TERM
 (FOR PURE FINITE-DIFFERENCE OPTION, MIXELM=0) 
 =  8.028    (WHEN MIN. R.F.=1)  AT K=  16, I=   1, J=  90


 TOTAL NUMBER OF POINT SOURCES/SINKS PRESENT IN THE FLOW MODEL =    30

 MAXIMUM STEPSIZE WHICH MEETS STABILITY CRITERION OF THE SINK & SOURCE TERM
 =  12.17    (WHEN MIN. R.F.=1)  AT K=  17, I=   1, J=  91

 MAXIMUM STEPSIZE WHICH MEETS STABILITY CRITERION OF THE DISPERSION TERM
 =  4.022    (WHEN MIN. R.F.=1)  AT K=  17, I=   1, J=  90
     1 CALLS TO GCG PACKAGE FOR TRANSPORT TIME STEP 589 IN FLOW TIME STEP   1 STRESS PERIOD   1
     8 TOTAL ITERATIONS
     1 CALLS TO GCG PACKAGE FOR TRANSPORT TIME STEP 589 IN FLOW TIME STEP   1 STRESS PERIOD   1
     8 TOTAL ITERATIONS
 
 SOLVING FOR HEAD 


     2 CALLS TO PCG ROUTINE FOR TIME STEP   1 IN STRESS PERIOD    1
     9 TOTAL ITERATIONS

 MAXIMUM HEAD CHANGE FOR EACH ITERATION (1 INDICATES THE FIRST INNER ITERATION):

    HEAD CHANGE    HEAD CHANGE    HEAD CHANGE    HEAD CHANGE    HEAD CHANGE 
   LAYER,ROW,COL  LAYER,ROW,COL  LAYER,ROW,COL  LAYER,ROW,COL  LAYER,ROW,COL
 ---------------------------------------------------------------------------
  1 -0.1333E-01  0  0.3654E-02  0  0.2470E-02  0 -0.8981E-02  0  0.8918E-02
   ( 15,  1, 86)  ( 17,  1, 89)  (  8,  1, 12)  (  8,  1, 43)  (  8,  1, 43)
  0 -0.1535E-02  0 -0.1144E-02  0  0.8643E-03  1 -0.7434E-03
   (  8,  1, 52)  ( 11,  1, 50)  ( 11,  1, 54)  ( 11,  1, 55)

 MAXIMUM RESIDUAL FOR EACH ITERATION (1 INDICATES THE FIRST INNER ITERATION):

    RESIDUAL       RESIDUAL       RESIDUAL       RESIDUAL       RESIDUAL    
   LAYER,ROW,COL  LAYER,ROW,COL  LAYER,ROW,COL  LAYER,ROW,COL  LAYER,ROW,COL
 ---------------------------------------------------------------------------
  1 -0.1307E+06  0  0.9148E+05  0  0.9018E+05  0  0.3220E+05  0   6040.    
   ( 21,  1, 89)  ( 19,  1, 89)  ( 19,  1, 89)  ( 19,  1, 89)  ( 17,  1, 87)
  0  -2841.      0  -2565.      0  -871.0      1  -726.3    
   ( 22,  1, 87)  ( 22,  1, 87)  ( 22,  1, 87)  ( 22,  1, 87)


 FLOW MODEL IS TRANSIENT
 FLOW MODEL CONTAINS CONSTANT-HEAD CELLS


 MAXIMUM STEPSIZE DURING WHICH ANY PARTICLE CANNOT MOVE MORE THAN ONE CELL
 =  13.22    (WHEN MIN. R.F.=1)  AT K=  17, I=   1, J=  90

 MAXIMUM STEPSIZE WHICH MEETS STABILITY CRITERION OF THE ADVECTION TERM
 (FOR PURE FINITE-DIFFERENCE OPTION, MIXELM=0) 
 =  8.004    (WHEN MIN. R.F.=1)  AT K=  16, I=   1, J=  90


 TOTAL NUMBER OF POINT SOURCES/SINKS PRESENT IN THE FLOW MODEL =    30

 MAXIMUM STEPSIZE WHICH MEETS STABILITY CRITERION OF THE SINK & SOURCE TERM
 =  12.17    (WHEN MIN. R.F.=1)  AT K=  17, I=   1, J=  91

 MAXIMUM STEPSIZE WHICH MEETS STABILITY CRITERION OF THE DISPERSION TERM
 =  4.370    (WHEN MIN. R.F.=1)  AT K=  17, I=   1, J=  90
     1 CALLS TO GCG PACKAGE FOR TRANSPORT TIME STEP 590 IN FLOW TIME STEP   1 STRESS PERIOD   1
     7 TOTAL ITERATIONS
  MAXIMUM CONCENTRATION CHANGES FOR EACH ITERATION:
  MAX. CHANGE LAYER,ROW,COL MAX. CHANGE LAYER,ROW,COL MAX. CHANGE LAYER,ROW,COL MAX. CHANGE LAYER,ROW,COL MAX. CHANGE LAYER,ROW,COL
 ------------------------------------------------------------------------------------------------------------------------------------
   0.4929E-01 ( 20,  1, 87)  0.3341E-02 ( 19,  1, 87)  0.2252E-02 ( 18,  1, 87)  0.2190E-03 ( 16,  1, 88)  0.1416E-03 ( 16,  1, 89)
   0.3066E-04 ( 16,  1, 90)  0.4708E-06 ( 21,  1, 78)
     1 CALLS TO GCG PACKAGE FOR TRANSPORT TIME STEP 590 IN FLOW TIME STEP   1 STRESS PERIOD   1
     8 TOTAL ITERATIONS
  MAXIMUM CONCENTRATION CHANGES FOR EACH ITERATION:
  MAX. CHANGE LAYER,ROW,COL MAX. CHANGE LAYER,ROW,COL MAX. CHANGE LAYER,ROW,COL MAX. CHANGE LAYER,ROW,COL MAX. CHANGE LAYER,ROW,COL
 ------------------------------------------------------------------------------------------------------------------------------------
   0.5502E-01 ( 20,  1, 87)  0.3860E-02 ( 19,  1, 87)  0.2365E-02 ( 18,  1, 87)  0.2234E-03 ( 16,  1, 88)  0.1361E-03 ( 16,  1, 89)
   0.3715E-04 ( 16,  1, 90)  0.5361E-05 ( 17,  1, 90)  0.5984E-06 ( 16,  1, 89)



 >>>>>>>>>>>>>>>>>>>>>>>>>>>>>>>>>>>>>>>>>>>>>>>>>>>>>>>FOR COMPONENT NO. 01<<<<<<<<<<<<<<<<<<<<<<<<<<<<<<<<<<<<<<<<<<<<<<<<<<<<<<<


                                            -------------------------------------------
                                                      TRANSPORT STEP NO.  590
                                            -------------------------------------------

 TOTAL ELAPSED TIME SINCE BEGINNING OF SIMULATION =   29500.00    D   
 .....................................................................

                     CUMMULATIVE MASS BUDGETS AT END OF TRANSPORT STEP  590, TIME STEP    1, STRESS PERIOD    1
                     ------------------------------------------------------------------------------------------

                                                             IN                           OUT
                                                      ----------------             ----------------
                               CONSTANT CONCENTRATION:    0.000000                    0.000000    
                                        CONSTANT HEAD:   0.1167311E+10              -0.1167105E+10
                                                WELLS:    0.000000                    0.000000    
                                             RECHARGE:    0.000000                    0.000000    
                               1ST/0TH ORDER REACTION:    0.000000                    0.000000    
                                MASS STORAGE (SOLUTE):   0.1632084E+09              -0.1634145E+09
                            ---------------------------------------------------------------------------
                                              [TOTAL]:   0.1330520E+10 KG           -0.1330521E+10 KG  

                                                          NET (IN - OUT):   -230.8750    
                                                   DISCREPANCY (PERCENT):  -0.1735223E-04



 >>>>>>>>>>>>>>>>>>>>>>>>>>>>>>>>>>>>>>>>>>>>>>>>>>>>>>>FOR COMPONENT NO. 02<<<<<<<<<<<<<<<<<<<<<<<<<<<<<<<<<<<<<<<<<<<<<<<<<<<<<<<


                                            -------------------------------------------
                                                      TRANSPORT STEP NO.  590
                                            -------------------------------------------

 TOTAL ELAPSED TIME SINCE BEGINNING OF SIMULATION =   29500.00    D   
 .....................................................................

                     CUMMULATIVE MASS BUDGETS AT END OF TRANSPORT STEP  590, TIME STEP    1, STRESS PERIOD    1
                     ------------------------------------------------------------------------------------------

                                                             IN                           OUT
                                                      ----------------             ----------------
                               CONSTANT CONCENTRATION:    0.000000                    0.000000    
                                        CONSTANT HEAD:    0.000000                  -0.1978399E+12
                                                WELLS:    0.000000                    0.000000    
                                             RECHARGE:    0.000000                    0.000000    
                               1ST/0TH ORDER REACTION:   0.4882250E+12                0.000000    
                                MASS STORAGE (SOLUTE):   0.6667806E+11              -0.3570633E+12
                            ---------------------------------------------------------------------------
                                              [TOTAL]:   0.5549040E+12 KG           -0.5549041E+12 KG  

                                                          NET (IN - OUT):   -69251.09    
                                                   DISCREPANCY (PERCENT):  -0.1247983E-04
 
 SOLVING FOR HEAD 


     2 CALLS TO PCG ROUTINE FOR TIME STEP   1 IN STRESS PERIOD    1
     9 TOTAL ITERATIONS

 MAXIMUM HEAD CHANGE FOR EACH ITERATION (1 INDICATES THE FIRST INNER ITERATION):

    HEAD CHANGE    HEAD CHANGE    HEAD CHANGE    HEAD CHANGE    HEAD CHANGE 
   LAYER,ROW,COL  LAYER,ROW,COL  LAYER,ROW,COL  LAYER,ROW,COL  LAYER,ROW,COL
 ---------------------------------------------------------------------------
  1  0.1348E-01  0 -0.3695E-02  0 -0.2313E-02  0  0.1451E-01  0 -0.1384E-01
   ( 15,  1, 86)  ( 17,  1, 89)  (  8,  1, 12)  ( 11,  1, 55)  ( 11,  1, 55)
  0 -0.2505E-02  0 -0.1155E-02  0 -0.8655E-03  1  0.7472E-03
   ( 11,  1, 66)  ( 11,  1, 49)  ( 11,  1, 59)  ( 11,  1, 70)

 MAXIMUM RESIDUAL FOR EACH ITERATION (1 INDICATES THE FIRST INNER ITERATION):

    RESIDUAL       RESIDUAL       RESIDUAL       RESIDUAL       RESIDUAL    
   LAYER,ROW,COL  LAYER,ROW,COL  LAYER,ROW,COL  LAYER,ROW,COL  LAYER,ROW,COL
 ---------------------------------------------------------------------------
  1  0.1317E+06  0 -0.9183E+05  0 -0.9027E+05  0 -0.2505E+05  0  -5358.    
   ( 21,  1, 89)  ( 19,  1, 89)  ( 19,  1, 89)  ( 19,  1, 89)  ( 17,  1, 87)
  0   2872.      0   2600.      0   1165.      1   1032.    
   ( 22,  1, 87)  ( 22,  1, 87)  ( 22,  1, 87)  ( 22,  1, 87)


 FLOW MODEL IS TRANSIENT
 FLOW MODEL CONTAINS CONSTANT-HEAD CELLS


 MAXIMUM STEPSIZE DURING WHICH ANY PARTICLE CANNOT MOVE MORE THAN ONE CELL
 =  12.86    (WHEN MIN. R.F.=1)  AT K=  17, I=   1, J=  90

 MAXIMUM STEPSIZE WHICH MEETS STABILITY CRITERION OF THE ADVECTION TERM
 (FOR PURE FINITE-DIFFERENCE OPTION, MIXELM=0) 
 =  8.035    (WHEN MIN. R.F.=1)  AT K=  16, I=   1, J=  90


 TOTAL NUMBER OF POINT SOURCES/SINKS PRESENT IN THE FLOW MODEL =    30

 MAXIMUM STEPSIZE WHICH MEETS STABILITY CRITERION OF THE SINK & SOURCE TERM
 =  12.21    (WHEN MIN. R.F.=1)  AT K=  17, I=   1, J=  91

 MAXIMUM STEPSIZE WHICH MEETS STABILITY CRITERION OF THE DISPERSION TERM
 =  4.035    (WHEN MIN. R.F.=1)  AT K=  17, I=   1, J=  90
     1 CALLS TO GCG PACKAGE FOR TRANSPORT TIME STEP 591 IN FLOW TIME STEP   1 STRESS PERIOD   1
     8 TOTAL ITERATIONS
     1 CALLS TO GCG PACKAGE FOR TRANSPORT TIME STEP 591 IN FLOW TIME STEP   1 STRESS PERIOD   1
     8 TOTAL ITERATIONS
 
 SOLVING FOR HEAD 


     2 CALLS TO PCG ROUTINE FOR TIME STEP   1 IN STRESS PERIOD    1
     9 TOTAL ITERATIONS

 MAXIMUM HEAD CHANGE FOR EACH ITERATION (1 INDICATES THE FIRST INNER ITERATION):

    HEAD CHANGE    HEAD CHANGE    HEAD CHANGE    HEAD CHANGE    HEAD CHANGE 
   LAYER,ROW,COL  LAYER,ROW,COL  LAYER,ROW,COL  LAYER,ROW,COL  LAYER,ROW,COL
 ---------------------------------------------------------------------------
  1 -0.1348E-01  0  0.3754E-02  0  0.2510E-02  0 -0.8108E-02  0  0.8347E-02
   ( 15,  1, 86)  ( 17,  1, 89)  (  8,  1, 12)  (  7,  1, 45)  (  7,  1, 45)
  0 -0.1793E-02  0  0.1093E-02  0  0.9308E-03  1 -0.7701E-03
   ( 11,  1, 65)  ( 11,  1, 66)  ( 11,  1, 54)  ( 11,  1, 54)

 MAXIMUM RESIDUAL FOR EACH ITERATION (1 INDICATES THE FIRST INNER ITERATION):

    RESIDUAL       RESIDUAL       RESIDUAL       RESIDUAL       RESIDUAL    
   LAYER,ROW,COL  LAYER,ROW,COL  LAYER,ROW,COL  LAYER,ROW,COL  LAYER,ROW,COL
 ---------------------------------------------------------------------------
  1 -0.1340E+06  0  0.9493E+05  0  0.9361E+05  0  0.2883E+05  0   5735.    
   ( 21,  1, 89)  ( 19,  1, 89)  ( 19,  1, 89)  ( 19,  1, 89)  ( 17,  1, 87)
  0  -2821.      0  -2525.      0  -957.3      1  -804.1    
   ( 22,  1, 87)  ( 22,  1, 87)  ( 22,  1, 87)  ( 22,  1, 87)


 FLOW MODEL IS TRANSIENT
 FLOW MODEL CONTAINS CONSTANT-HEAD CELLS


 MAXIMUM STEPSIZE DURING WHICH ANY PARTICLE CANNOT MOVE MORE THAN ONE CELL
 =  13.19    (WHEN MIN. R.F.=1)  AT K=  17, I=   1, J=  90

 MAXIMUM STEPSIZE WHICH MEETS STABILITY CRITERION OF THE ADVECTION TERM
 (FOR PURE FINITE-DIFFERENCE OPTION, MIXELM=0) 
 =  7.994    (WHEN MIN. R.F.=1)  AT K=  16, I=   1, J=  90


 TOTAL NUMBER OF POINT SOURCES/SINKS PRESENT IN THE FLOW MODEL =    30

 MAXIMUM STEPSIZE WHICH MEETS STABILITY CRITERION OF THE SINK & SOURCE TERM
 =  12.15    (WHEN MIN. R.F.=1)  AT K=  17, I=   1, J=  91

 MAXIMUM STEPSIZE WHICH MEETS STABILITY CRITERION OF THE DISPERSION TERM
 =  4.352    (WHEN MIN. R.F.=1)  AT K=  17, I=   1, J=  90
     1 CALLS TO GCG PACKAGE FOR TRANSPORT TIME STEP 592 IN FLOW TIME STEP   1 STRESS PERIOD   1
     9 TOTAL ITERATIONS
     1 CALLS TO GCG PACKAGE FOR TRANSPORT TIME STEP 592 IN FLOW TIME STEP   1 STRESS PERIOD   1
     8 TOTAL ITERATIONS
 
 SOLVING FOR HEAD 


     2 CALLS TO PCG ROUTINE FOR TIME STEP   1 IN STRESS PERIOD    1
     8 TOTAL ITERATIONS

 MAXIMUM HEAD CHANGE FOR EACH ITERATION (1 INDICATES THE FIRST INNER ITERATION):

    HEAD CHANGE    HEAD CHANGE    HEAD CHANGE    HEAD CHANGE    HEAD CHANGE 
   LAYER,ROW,COL  LAYER,ROW,COL  LAYER,ROW,COL  LAYER,ROW,COL  LAYER,ROW,COL
 ---------------------------------------------------------------------------
  1  0.1358E-01  0 -0.3740E-02  0 -0.2540E-02  0  0.1448E-01  0 -0.1365E-01
   ( 15,  1, 86)  ( 17,  1, 89)  (  8,  1, 12)  ( 11,  1, 54)  ( 11,  1, 54)
  0 -0.2495E-02  0  0.9291E-03  1 -0.6028E-03
   ( 11,  1, 65)  ( 11,  1, 54)  ( 11,  1, 54)

 MAXIMUM RESIDUAL FOR EACH ITERATION (1 INDICATES THE FIRST INNER ITERATION):

    RESIDUAL       RESIDUAL       RESIDUAL       RESIDUAL       RESIDUAL    
   LAYER,ROW,COL  LAYER,ROW,COL  LAYER,ROW,COL  LAYER,ROW,COL  LAYER,ROW,COL
 ---------------------------------------------------------------------------
  1  0.1321E+06  0 -0.9280E+05  0 -0.9160E+05  0 -0.2567E+05  0  -5333.    
   ( 21,  1, 89)  ( 19,  1, 89)  ( 19,  1, 89)  ( 19,  1, 89)  ( 17,  1, 87)
  0   2847.      0   2585.      1   2013.    
   ( 22,  1, 87)  ( 22,  1, 87)  ( 22,  1, 87)


 FLOW MODEL IS TRANSIENT
 FLOW MODEL CONTAINS CONSTANT-HEAD CELLS


 MAXIMUM STEPSIZE DURING WHICH ANY PARTICLE CANNOT MOVE MORE THAN ONE CELL
 =  12.85    (WHEN MIN. R.F.=1)  AT K=  17, I=   1, J=  90

 MAXIMUM STEPSIZE WHICH MEETS STABILITY CRITERION OF THE ADVECTION TERM
 (FOR PURE FINITE-DIFFERENCE OPTION, MIXELM=0) 
 =  8.028    (WHEN MIN. R.F.=1)  AT K=  16, I=   1, J=  90


 TOTAL NUMBER OF POINT SOURCES/SINKS PRESENT IN THE FLOW MODEL =    30

 MAXIMUM STEPSIZE WHICH MEETS STABILITY CRITERION OF THE SINK & SOURCE TERM
 =  12.20    (WHEN MIN. R.F.=1)  AT K=  17, I=   1, J=  91

 MAXIMUM STEPSIZE WHICH MEETS STABILITY CRITERION OF THE DISPERSION TERM
 =  4.028    (WHEN MIN. R.F.=1)  AT K=  17, I=   1, J=  90
     1 CALLS TO GCG PACKAGE FOR TRANSPORT TIME STEP 593 IN FLOW TIME STEP   1 STRESS PERIOD   1
     8 TOTAL ITERATIONS
     1 CALLS TO GCG PACKAGE FOR TRANSPORT TIME STEP 593 IN FLOW TIME STEP   1 STRESS PERIOD   1
     8 TOTAL ITERATIONS
 
 SOLVING FOR HEAD 


     2 CALLS TO PCG ROUTINE FOR TIME STEP   1 IN STRESS PERIOD    1
    10 TOTAL ITERATIONS

 MAXIMUM HEAD CHANGE FOR EACH ITERATION (1 INDICATES THE FIRST INNER ITERATION):

    HEAD CHANGE    HEAD CHANGE    HEAD CHANGE    HEAD CHANGE    HEAD CHANGE 
   LAYER,ROW,COL  LAYER,ROW,COL  LAYER,ROW,COL  LAYER,ROW,COL  LAYER,ROW,COL
 ---------------------------------------------------------------------------
  1 -0.1368E-01  0 -0.8471E-02  0  0.3824E-02  0  0.9246E-02  0 -0.6241E-02
   ( 15,  1, 86)  (  6,  1, 41)  (  7,  1, 12)  ( 10,  1, 46)  (  8,  1, 46)
  0 -0.5629E-02  0  0.1898E-02  0  0.1060E-02  0  0.7454E-03  1 -0.2802E-03
   ( 11,  1, 54)  ( 11,  1, 53)  ( 11,  1, 65)  ( 11,  1, 49)  ( 11,  1, 60)

 MAXIMUM RESIDUAL FOR EACH ITERATION (1 INDICATES THE FIRST INNER ITERATION):

    RESIDUAL       RESIDUAL       RESIDUAL       RESIDUAL       RESIDUAL    
   LAYER,ROW,COL  LAYER,ROW,COL  LAYER,ROW,COL  LAYER,ROW,COL  LAYER,ROW,COL
 ---------------------------------------------------------------------------
  1 -0.1341E+06  0  0.9456E+05  0  0.9374E+05  0  0.7753E+05  0   6364.    
   ( 21,  1, 89)  ( 19,  1, 89)  ( 19,  1, 89)  ( 19,  1, 89)  ( 17,  1, 87)
  0  -2958.      0  -2608.      0  -1715.      0  -403.1      1  -341.1    
   ( 17,  1, 88)  ( 22,  1, 87)  ( 22,  1, 87)  ( 22,  1, 87)  ( 22,  1, 87)


 FLOW MODEL IS TRANSIENT
 FLOW MODEL CONTAINS CONSTANT-HEAD CELLS


 MAXIMUM STEPSIZE DURING WHICH ANY PARTICLE CANNOT MOVE MORE THAN ONE CELL
 =  13.15    (WHEN MIN. R.F.=1)  AT K=  17, I=   1, J=  90

 MAXIMUM STEPSIZE WHICH MEETS STABILITY CRITERION OF THE ADVECTION TERM
 (FOR PURE FINITE-DIFFERENCE OPTION, MIXELM=0) 
 =  7.976    (WHEN MIN. R.F.=1)  AT K=  16, I=   1, J=  90


 TOTAL NUMBER OF POINT SOURCES/SINKS PRESENT IN THE FLOW MODEL =    30

 MAXIMUM STEPSIZE WHICH MEETS STABILITY CRITERION OF THE SINK & SOURCE TERM
 =  12.10    (WHEN MIN. R.F.=1)  AT K=  17, I=   1, J=  91

 MAXIMUM STEPSIZE WHICH MEETS STABILITY CRITERION OF THE DISPERSION TERM
 =  4.337    (WHEN MIN. R.F.=1)  AT K=  17, I=   1, J=  90
     1 CALLS TO GCG PACKAGE FOR TRANSPORT TIME STEP 594 IN FLOW TIME STEP   1 STRESS PERIOD   1
     9 TOTAL ITERATIONS
     1 CALLS TO GCG PACKAGE FOR TRANSPORT TIME STEP 594 IN FLOW TIME STEP   1 STRESS PERIOD   1
     8 TOTAL ITERATIONS
 
 SOLVING FOR HEAD 


     2 CALLS TO PCG ROUTINE FOR TIME STEP   1 IN STRESS PERIOD    1
     8 TOTAL ITERATIONS

 MAXIMUM HEAD CHANGE FOR EACH ITERATION (1 INDICATES THE FIRST INNER ITERATION):

    HEAD CHANGE    HEAD CHANGE    HEAD CHANGE    HEAD CHANGE    HEAD CHANGE 
   LAYER,ROW,COL  LAYER,ROW,COL  LAYER,ROW,COL  LAYER,ROW,COL  LAYER,ROW,COL
 ---------------------------------------------------------------------------
  1  0.1352E-01  0 -0.3900E-02  0 -0.2396E-02  0  0.5818E-02  0  0.7421E-02
   ( 15,  1, 86)  ( 17,  1, 89)  (  8,  1, 12)  ( 11,  1, 60)  ( 11,  1, 68)
  0 -0.2660E-02  0 -0.9550E-03  1  0.6148E-03
   ( 11,  1, 68)  ( 11,  1, 54)  ( 11,  1, 54)

 MAXIMUM RESIDUAL FOR EACH ITERATION (1 INDICATES THE FIRST INNER ITERATION):

    RESIDUAL       RESIDUAL       RESIDUAL       RESIDUAL       RESIDUAL    
   LAYER,ROW,COL  LAYER,ROW,COL  LAYER,ROW,COL  LAYER,ROW,COL  LAYER,ROW,COL
 ---------------------------------------------------------------------------
  1  0.1332E+06  0 -0.9434E+05  0 -0.9293E+05  0 -0.1479E+05  0   4236.    
   ( 21,  1, 89)  ( 19,  1, 89)  ( 19,  1, 89)  ( 19,  1, 89)  ( 17,  1, 88)
  0   2770.      0   2282.      1   1991.    
   ( 22,  1, 87)  ( 22,  1, 87)  ( 22,  1, 87)


 FLOW MODEL IS TRANSIENT
 FLOW MODEL CONTAINS CONSTANT-HEAD CELLS


 MAXIMUM STEPSIZE DURING WHICH ANY PARTICLE CANNOT MOVE MORE THAN ONE CELL
 =  12.82    (WHEN MIN. R.F.=1)  AT K=  17, I=   1, J=  90

 MAXIMUM STEPSIZE WHICH MEETS STABILITY CRITERION OF THE ADVECTION TERM
 (FOR PURE FINITE-DIFFERENCE OPTION, MIXELM=0) 
 =  8.017    (WHEN MIN. R.F.=1)  AT K=  16, I=   1, J=  90


 TOTAL NUMBER OF POINT SOURCES/SINKS PRESENT IN THE FLOW MODEL =    30

 MAXIMUM STEPSIZE WHICH MEETS STABILITY CRITERION OF THE SINK & SOURCE TERM
 =  12.16    (WHEN MIN. R.F.=1)  AT K=  17, I=   1, J=  91

 MAXIMUM STEPSIZE WHICH MEETS STABILITY CRITERION OF THE DISPERSION TERM
 =  4.014    (WHEN MIN. R.F.=1)  AT K=  17, I=   1, J=  90
     1 CALLS TO GCG PACKAGE FOR TRANSPORT TIME STEP 595 IN FLOW TIME STEP   1 STRESS PERIOD   1
     8 TOTAL ITERATIONS
  MAXIMUM CONCENTRATION CHANGES FOR EACH ITERATION:
  MAX. CHANGE LAYER,ROW,COL MAX. CHANGE LAYER,ROW,COL MAX. CHANGE LAYER,ROW,COL MAX. CHANGE LAYER,ROW,COL MAX. CHANGE LAYER,ROW,COL
 ------------------------------------------------------------------------------------------------------------------------------------
   0.5240E-01 ( 20,  1, 87)  0.4193E-02 ( 19,  1, 89)  0.2113E-02 ( 17,  1, 86)  0.4555E-03 ( 20,  1, 89)  0.9384E-04 ( 16,  1, 89)
   0.2093E-04 ( 20,  1, 89)  0.1816E-04 ( 16,  1, 90)  0.6564E-06 ( 17,  1, 90)
     1 CALLS TO GCG PACKAGE FOR TRANSPORT TIME STEP 595 IN FLOW TIME STEP   1 STRESS PERIOD   1
     8 TOTAL ITERATIONS
  MAXIMUM CONCENTRATION CHANGES FOR EACH ITERATION:
  MAX. CHANGE LAYER,ROW,COL MAX. CHANGE LAYER,ROW,COL MAX. CHANGE LAYER,ROW,COL MAX. CHANGE LAYER,ROW,COL MAX. CHANGE LAYER,ROW,COL
 ------------------------------------------------------------------------------------------------------------------------------------
   0.5976E-01 ( 20,  1, 87)  0.4859E-02 ( 19,  1, 89)  0.2107E-02 ( 18,  1, 86)  0.3919E-03 ( 20,  1, 89)  0.1104E-03 ( 16,  1, 89)
   0.1973E-04 ( 23,  1, 87)  0.1610E-04 ( 16,  1, 90)  0.8491E-06 ( 17,  1, 90)
 
 SOLVING FOR HEAD 


     2 CALLS TO PCG ROUTINE FOR TIME STEP   1 IN STRESS PERIOD    1
     9 TOTAL ITERATIONS

 MAXIMUM HEAD CHANGE FOR EACH ITERATION (1 INDICATES THE FIRST INNER ITERATION):

    HEAD CHANGE    HEAD CHANGE    HEAD CHANGE    HEAD CHANGE    HEAD CHANGE 
   LAYER,ROW,COL  LAYER,ROW,COL  LAYER,ROW,COL  LAYER,ROW,COL  LAYER,ROW,COL
 ---------------------------------------------------------------------------
  1 -0.1361E-01  0 -0.4345E-02  0  0.3687E-02  0  0.9142E-02  0 -0.7791E-02
   ( 15,  1, 86)  (  6,  1, 55)  (  8,  1, 12)  (  9,  1, 56)  (  9,  1, 55)
  0  0.2532E-02  0 -0.1282E-02  0  0.7040E-03  1 -0.6132E-03
   ( 11,  1, 54)  ( 11,  1, 54)  ( 11,  1, 49)  ( 11,  1, 49)

 MAXIMUM RESIDUAL FOR EACH ITERATION (1 INDICATES THE FIRST INNER ITERATION):

    RESIDUAL       RESIDUAL       RESIDUAL       RESIDUAL       RESIDUAL    
   LAYER,ROW,COL  LAYER,ROW,COL  LAYER,ROW,COL  LAYER,ROW,COL  LAYER,ROW,COL
 ---------------------------------------------------------------------------
  1 -0.1313E+06  0  0.9186E+05  0  0.9108E+05  0  0.6118E+05  0   6118.    
   ( 21,  1, 89)  ( 19,  1, 89)  ( 19,  1, 89)  ( 19,  1, 89)  ( 17,  1, 87)
  0  -2759.      0  -2578.      0  -1055.      1  -942.3    
   ( 22,  1, 87)  ( 22,  1, 87)  ( 22,  1, 87)  ( 22,  1, 87)


 FLOW MODEL IS TRANSIENT
 FLOW MODEL CONTAINS CONSTANT-HEAD CELLS


 MAXIMUM STEPSIZE DURING WHICH ANY PARTICLE CANNOT MOVE MORE THAN ONE CELL
 =  13.15    (WHEN MIN. R.F.=1)  AT K=  17, I=   1, J=  90

 MAXIMUM STEPSIZE WHICH MEETS STABILITY CRITERION OF THE ADVECTION TERM
 (FOR PURE FINITE-DIFFERENCE OPTION, MIXELM=0) 
 =  7.976    (WHEN MIN. R.F.=1)  AT K=  16, I=   1, J=  90


 TOTAL NUMBER OF POINT SOURCES/SINKS PRESENT IN THE FLOW MODEL =    30

 MAXIMUM STEPSIZE WHICH MEETS STABILITY CRITERION OF THE SINK & SOURCE TERM
 =  12.10    (WHEN MIN. R.F.=1)  AT K=  17, I=   1, J=  91

 MAXIMUM STEPSIZE WHICH MEETS STABILITY CRITERION OF THE DISPERSION TERM
 =  4.338    (WHEN MIN. R.F.=1)  AT K=  17, I=   1, J=  90
     1 CALLS TO GCG PACKAGE FOR TRANSPORT TIME STEP 596 IN FLOW TIME STEP   1 STRESS PERIOD   1
    10 TOTAL ITERATIONS
     1 CALLS TO GCG PACKAGE FOR TRANSPORT TIME STEP 596 IN FLOW TIME STEP   1 STRESS PERIOD   1
     8 TOTAL ITERATIONS
 
 SOLVING FOR HEAD 


     2 CALLS TO PCG ROUTINE FOR TIME STEP   1 IN STRESS PERIOD    1
     9 TOTAL ITERATIONS

 MAXIMUM HEAD CHANGE FOR EACH ITERATION (1 INDICATES THE FIRST INNER ITERATION):

    HEAD CHANGE    HEAD CHANGE    HEAD CHANGE    HEAD CHANGE    HEAD CHANGE 
   LAYER,ROW,COL  LAYER,ROW,COL  LAYER,ROW,COL  LAYER,ROW,COL  LAYER,ROW,COL
 ---------------------------------------------------------------------------
  1  0.1364E-01  0 -0.4074E-02  0 -0.3309E-02  0  0.8965E-02  0 -0.9465E-02
   ( 15,  1, 86)  ( 17,  1, 89)  (  8,  1, 12)  ( 11,  1, 51)  ( 11,  1, 51)
  0  0.1809E-02  0 -0.1153E-02  0 -0.8071E-03  1  0.3867E-03
   ( 11,  1, 53)  ( 11,  1, 70)  ( 11,  1, 49)  ( 11,  1, 70)

 MAXIMUM RESIDUAL FOR EACH ITERATION (1 INDICATES THE FIRST INNER ITERATION):

    RESIDUAL       RESIDUAL       RESIDUAL       RESIDUAL       RESIDUAL    
   LAYER,ROW,COL  LAYER,ROW,COL  LAYER,ROW,COL  LAYER,ROW,COL  LAYER,ROW,COL
 ---------------------------------------------------------------------------
  1  0.1321E+06  0 -0.9352E+05  0 -0.9263E+05  0 -0.2136E+05  0   5059.    
   ( 21,  1, 89)  ( 19,  1, 89)  ( 19,  1, 89)  ( 19,  1, 89)  ( 17,  1, 88)
  0   2783.      0   1956.      0   681.9      1   582.5    
   ( 22,  1, 87)  ( 22,  1, 87)  ( 22,  1, 87)  ( 22,  1, 87)


 FLOW MODEL IS TRANSIENT
 FLOW MODEL CONTAINS CONSTANT-HEAD CELLS


 MAXIMUM STEPSIZE DURING WHICH ANY PARTICLE CANNOT MOVE MORE THAN ONE CELL
 =  12.85    (WHEN MIN. R.F.=1)  AT K=  17, I=   1, J=  90

 MAXIMUM STEPSIZE WHICH MEETS STABILITY CRITERION OF THE ADVECTION TERM
 (FOR PURE FINITE-DIFFERENCE OPTION, MIXELM=0) 
 =  8.031    (WHEN MIN. R.F.=1)  AT K=  16, I=   1, J=  90


 TOTAL NUMBER OF POINT SOURCES/SINKS PRESENT IN THE FLOW MODEL =    30

 MAXIMUM STEPSIZE WHICH MEETS STABILITY CRITERION OF THE SINK & SOURCE TERM
 =  12.19    (WHEN MIN. R.F.=1)  AT K=  17, I=   1, J=  91

 MAXIMUM STEPSIZE WHICH MEETS STABILITY CRITERION OF THE DISPERSION TERM
 =  4.026    (WHEN MIN. R.F.=1)  AT K=  17, I=   1, J=  90
     1 CALLS TO GCG PACKAGE FOR TRANSPORT TIME STEP 597 IN FLOW TIME STEP   1 STRESS PERIOD   1
     8 TOTAL ITERATIONS
     1 CALLS TO GCG PACKAGE FOR TRANSPORT TIME STEP 597 IN FLOW TIME STEP   1 STRESS PERIOD   1
     8 TOTAL ITERATIONS
 
 SOLVING FOR HEAD 


     2 CALLS TO PCG ROUTINE FOR TIME STEP   1 IN STRESS PERIOD    1
     9 TOTAL ITERATIONS

 MAXIMUM HEAD CHANGE FOR EACH ITERATION (1 INDICATES THE FIRST INNER ITERATION):

    HEAD CHANGE    HEAD CHANGE    HEAD CHANGE    HEAD CHANGE    HEAD CHANGE 
   LAYER,ROW,COL  LAYER,ROW,COL  LAYER,ROW,COL  LAYER,ROW,COL  LAYER,ROW,COL
 ---------------------------------------------------------------------------
  1 -0.1336E-01  0  0.3633E-02  0  0.2314E-02  0  0.8767E-02  0 -0.8904E-02
   ( 15,  1, 86)  ( 17,  1, 89)  (  7,  1, 12)  (  6,  1, 51)  (  7,  1, 51)
  0 -0.1623E-02  0  0.1089E-02  0  0.7056E-03  1 -0.7518E-03
   ( 11,  1, 37)  ( 11,  1, 56)  ( 11,  1, 67)  ( 11,  1, 68)

 MAXIMUM RESIDUAL FOR EACH ITERATION (1 INDICATES THE FIRST INNER ITERATION):

    RESIDUAL       RESIDUAL       RESIDUAL       RESIDUAL       RESIDUAL    
   LAYER,ROW,COL  LAYER,ROW,COL  LAYER,ROW,COL  LAYER,ROW,COL  LAYER,ROW,COL
 ---------------------------------------------------------------------------
  1 -0.1300E+06  0  0.9111E+05  0  0.8955E+05  0  0.3467E+05  0   6224.    
   ( 21,  1, 89)  ( 19,  1, 89)  ( 19,  1, 89)  ( 19,  1, 89)  ( 17,  1, 87)
  0  -2852.      0  -2511.      0  -803.7      1  -665.1    
   ( 22,  1, 87)  ( 22,  1, 87)  ( 22,  1, 87)  ( 22,  1, 87)


 FLOW MODEL IS TRANSIENT
 FLOW MODEL CONTAINS CONSTANT-HEAD CELLS


 MAXIMUM STEPSIZE DURING WHICH ANY PARTICLE CANNOT MOVE MORE THAN ONE CELL
 =  13.22    (WHEN MIN. R.F.=1)  AT K=  17, I=   1, J=  90

 MAXIMUM STEPSIZE WHICH MEETS STABILITY CRITERION OF THE ADVECTION TERM
 (FOR PURE FINITE-DIFFERENCE OPTION, MIXELM=0) 
 =  8.004    (WHEN MIN. R.F.=1)  AT K=  16, I=   1, J=  90


 TOTAL NUMBER OF POINT SOURCES/SINKS PRESENT IN THE FLOW MODEL =    30

 MAXIMUM STEPSIZE WHICH MEETS STABILITY CRITERION OF THE SINK & SOURCE TERM
 =  12.18    (WHEN MIN. R.F.=1)  AT K=  17, I=   1, J=  91

 MAXIMUM STEPSIZE WHICH MEETS STABILITY CRITERION OF THE DISPERSION TERM
 =  4.366    (WHEN MIN. R.F.=1)  AT K=  17, I=   1, J=  90
     1 CALLS TO GCG PACKAGE FOR TRANSPORT TIME STEP 598 IN FLOW TIME STEP   1 STRESS PERIOD   1
     9 TOTAL ITERATIONS
     1 CALLS TO GCG PACKAGE FOR TRANSPORT TIME STEP 598 IN FLOW TIME STEP   1 STRESS PERIOD   1
     8 TOTAL ITERATIONS
 
 SOLVING FOR HEAD 


     2 CALLS TO PCG ROUTINE FOR TIME STEP   1 IN STRESS PERIOD    1
     9 TOTAL ITERATIONS

 MAXIMUM HEAD CHANGE FOR EACH ITERATION (1 INDICATES THE FIRST INNER ITERATION):

    HEAD CHANGE    HEAD CHANGE    HEAD CHANGE    HEAD CHANGE    HEAD CHANGE 
   LAYER,ROW,COL  LAYER,ROW,COL  LAYER,ROW,COL  LAYER,ROW,COL  LAYER,ROW,COL
 ---------------------------------------------------------------------------
  1  0.1344E-01  0 -0.3656E-02  0 -0.2317E-02  0 -0.1003E-01  0  0.1148E-01
   ( 15,  1, 86)  ( 17,  1, 89)  (  8,  1, 12)  ( 11,  1, 59)  ( 11,  1, 59)
  0 -0.2024E-02  0 -0.1363E-02  0 -0.6863E-03  1  0.7520E-03
   ( 11,  1, 58)  ( 11,  1, 70)  ( 11,  1, 51)  ( 11,  1, 70)

 MAXIMUM RESIDUAL FOR EACH ITERATION (1 INDICATES THE FIRST INNER ITERATION):

    RESIDUAL       RESIDUAL       RESIDUAL       RESIDUAL       RESIDUAL    
   LAYER,ROW,COL  LAYER,ROW,COL  LAYER,ROW,COL  LAYER,ROW,COL  LAYER,ROW,COL
 ---------------------------------------------------------------------------
  1  0.1315E+06  0 -0.9163E+05  0 -0.8980E+05  0 -0.2169E+05  0  -4969.    
   ( 21,  1, 89)  ( 19,  1, 89)  ( 19,  1, 89)  ( 19,  1, 89)  ( 17,  1, 87)
  0   2891.      0   2173.      0   778.2      1   672.0    
   ( 22,  1, 87)  ( 22,  1, 87)  ( 22,  1, 87)  ( 22,  1, 87)


 FLOW MODEL IS TRANSIENT
 FLOW MODEL CONTAINS CONSTANT-HEAD CELLS


 MAXIMUM STEPSIZE DURING WHICH ANY PARTICLE CANNOT MOVE MORE THAN ONE CELL
 =  12.86    (WHEN MIN. R.F.=1)  AT K=  17, I=   1, J=  90

 MAXIMUM STEPSIZE WHICH MEETS STABILITY CRITERION OF THE ADVECTION TERM
 (FOR PURE FINITE-DIFFERENCE OPTION, MIXELM=0) 
 =  8.034    (WHEN MIN. R.F.=1)  AT K=  16, I=   1, J=  90


 TOTAL NUMBER OF POINT SOURCES/SINKS PRESENT IN THE FLOW MODEL =    30

 MAXIMUM STEPSIZE WHICH MEETS STABILITY CRITERION OF THE SINK & SOURCE TERM
 =  12.21    (WHEN MIN. R.F.=1)  AT K=  17, I=   1, J=  91

 MAXIMUM STEPSIZE WHICH MEETS STABILITY CRITERION OF THE DISPERSION TERM
 =  4.035    (WHEN MIN. R.F.=1)  AT K=  17, I=   1, J=  90
     1 CALLS TO GCG PACKAGE FOR TRANSPORT TIME STEP 599 IN FLOW TIME STEP   1 STRESS PERIOD   1
     8 TOTAL ITERATIONS
     1 CALLS TO GCG PACKAGE FOR TRANSPORT TIME STEP 599 IN FLOW TIME STEP   1 STRESS PERIOD   1
     8 TOTAL ITERATIONS
 
 SOLVING FOR HEAD 


     2 CALLS TO PCG ROUTINE FOR TIME STEP   1 IN STRESS PERIOD    1
     9 TOTAL ITERATIONS

 MAXIMUM HEAD CHANGE FOR EACH ITERATION (1 INDICATES THE FIRST INNER ITERATION):

    HEAD CHANGE    HEAD CHANGE    HEAD CHANGE    HEAD CHANGE    HEAD CHANGE 
   LAYER,ROW,COL  LAYER,ROW,COL  LAYER,ROW,COL  LAYER,ROW,COL  LAYER,ROW,COL
 ---------------------------------------------------------------------------
  1 -0.1342E-01  0  0.3631E-02  0  0.2355E-02  0  0.8550E-02  0 -0.8791E-02
   ( 15,  1, 86)  ( 17,  1, 89)  (  7,  1, 12)  ( 11,  1, 66)  (  9,  1, 52)
  0 -0.1296E-02  0  0.1261E-02  0  0.8227E-03  1 -0.7427E-03
   ( 11,  1, 36)  ( 11,  1, 66)  ( 11,  1, 49)  ( 11,  1, 67)

 MAXIMUM RESIDUAL FOR EACH ITERATION (1 INDICATES THE FIRST INNER ITERATION):

    RESIDUAL       RESIDUAL       RESIDUAL       RESIDUAL       RESIDUAL    
   LAYER,ROW,COL  LAYER,ROW,COL  LAYER,ROW,COL  LAYER,ROW,COL  LAYER,ROW,COL
 ---------------------------------------------------------------------------
  1 -0.1328E+06  0  0.9375E+05  0  0.9157E+05  0  0.3634E+05  0   6062.    
   ( 21,  1, 89)  ( 19,  1, 89)  ( 19,  1, 89)  ( 19,  1, 89)  ( 17,  1, 87)
  0  -2836.      0  -2366.      0  -881.8      1  -750.6    
   ( 22,  1, 87)  ( 22,  1, 87)  ( 22,  1, 87)  ( 22,  1, 87)


 FLOW MODEL IS TRANSIENT
 FLOW MODEL CONTAINS CONSTANT-HEAD CELLS


 MAXIMUM STEPSIZE DURING WHICH ANY PARTICLE CANNOT MOVE MORE THAN ONE CELL
 =  13.20    (WHEN MIN. R.F.=1)  AT K=  17, I=   1, J=  90

 MAXIMUM STEPSIZE WHICH MEETS STABILITY CRITERION OF THE ADVECTION TERM
 (FOR PURE FINITE-DIFFERENCE OPTION, MIXELM=0) 
 =  8.000    (WHEN MIN. R.F.=1)  AT K=  16, I=   1, J=  90


 TOTAL NUMBER OF POINT SOURCES/SINKS PRESENT IN THE FLOW MODEL =    30

 MAXIMUM STEPSIZE WHICH MEETS STABILITY CRITERION OF THE SINK & SOURCE TERM
 =  12.17    (WHEN MIN. R.F.=1)  AT K=  17, I=   1, J=  91

 MAXIMUM STEPSIZE WHICH MEETS STABILITY CRITERION OF THE DISPERSION TERM
 =  4.355    (WHEN MIN. R.F.=1)  AT K=  17, I=   1, J=  90
     1 CALLS TO GCG PACKAGE FOR TRANSPORT TIME STEP 600 IN FLOW TIME STEP   1 STRESS PERIOD   1
     9 TOTAL ITERATIONS
  MAXIMUM CONCENTRATION CHANGES FOR EACH ITERATION:
  MAX. CHANGE LAYER,ROW,COL MAX. CHANGE LAYER,ROW,COL MAX. CHANGE LAYER,ROW,COL MAX. CHANGE LAYER,ROW,COL MAX. CHANGE LAYER,ROW,COL
 ------------------------------------------------------------------------------------------------------------------------------------
   0.4937E-01 ( 20,  1, 87)  0.3327E-02 ( 19,  1, 87)  0.2225E-02 ( 18,  1, 87)  0.2173E-03 ( 16,  1, 88)  0.1413E-03 ( 16,  1, 89)
   0.2995E-04 ( 16,  1, 90)  0.1945E-05 ( 21,  1, 78)  0.2730E-05 ( 21,  1, 78)  0.7790E-06 ( 16,  1, 89)
     1 CALLS TO GCG PACKAGE FOR TRANSPORT TIME STEP 600 IN FLOW TIME STEP   1 STRESS PERIOD   1
     8 TOTAL ITERATIONS
  MAXIMUM CONCENTRATION CHANGES FOR EACH ITERATION:
  MAX. CHANGE LAYER,ROW,COL MAX. CHANGE LAYER,ROW,COL MAX. CHANGE LAYER,ROW,COL MAX. CHANGE LAYER,ROW,COL MAX. CHANGE LAYER,ROW,COL
 ------------------------------------------------------------------------------------------------------------------------------------
   0.5504E-01 ( 20,  1, 87)  0.3828E-02 ( 19,  1, 87)  0.2337E-02 ( 18,  1, 87)  0.2213E-03 ( 16,  1, 88)  0.1370E-03 ( 16,  1, 89)
   0.3602E-04 ( 16,  1, 90)  0.5367E-05 ( 17,  1, 90)  0.5829E-06 ( 16,  1, 89)



 >>>>>>>>>>>>>>>>>>>>>>>>>>>>>>>>>>>>>>>>>>>>>>>>>>>>>>>FOR COMPONENT NO. 01<<<<<<<<<<<<<<<<<<<<<<<<<<<<<<<<<<<<<<<<<<<<<<<<<<<<<<<


                                            -------------------------------------------
                                                      TRANSPORT STEP NO.  600
                                            -------------------------------------------

 TOTAL ELAPSED TIME SINCE BEGINNING OF SIMULATION =   30000.00    D   
 .....................................................................

                     CUMMULATIVE MASS BUDGETS AT END OF TRANSPORT STEP  600, TIME STEP    1, STRESS PERIOD    1
                     ------------------------------------------------------------------------------------------

                                                             IN                           OUT
                                                      ----------------             ----------------
                               CONSTANT CONCENTRATION:    0.000000                    0.000000    
                                        CONSTANT HEAD:   0.1187114E+10              -0.1186905E+10
                                                WELLS:    0.000000                    0.000000    
                                             RECHARGE:    0.000000                    0.000000    
                               1ST/0TH ORDER REACTION:    0.000000                    0.000000    
                                MASS STORAGE (SOLUTE):   0.1659640E+09              -0.1661724E+09
                            ---------------------------------------------------------------------------
                                              [TOTAL]:   0.1353079E+10 KG           -0.1353079E+10 KG  

                                                          NET (IN - OUT):   -223.2719    
                                                   DISCREPANCY (PERCENT):  -0.1650103E-04



 >>>>>>>>>>>>>>>>>>>>>>>>>>>>>>>>>>>>>>>>>>>>>>>>>>>>>>>FOR COMPONENT NO. 02<<<<<<<<<<<<<<<<<<<<<<<<<<<<<<<<<<<<<<<<<<<<<<<<<<<<<<<


                                            -------------------------------------------
                                                      TRANSPORT STEP NO.  600
                                            -------------------------------------------

 TOTAL ELAPSED TIME SINCE BEGINNING OF SIMULATION =   30000.00    D   
 .....................................................................

                     CUMMULATIVE MASS BUDGETS AT END OF TRANSPORT STEP  600, TIME STEP    1, STRESS PERIOD    1
                     ------------------------------------------------------------------------------------------

                                                             IN                           OUT
                                                      ----------------             ----------------
                               CONSTANT CONCENTRATION:    0.000000                    0.000000    
                                        CONSTANT HEAD:    0.000000                  -0.2034850E+12
                                                WELLS:    0.000000                    0.000000    
                                             RECHARGE:    0.000000                    0.000000    
                               1ST/0TH ORDER REACTION:   0.4965000E+12                0.000000    
                                MASS STORAGE (SOLUTE):   0.6902668E+11              -0.3620417E+12
                            ---------------------------------------------------------------------------
                                              [TOTAL]:   0.5655277E+12 KG           -0.5655277E+12 KG  

                                                          NET (IN - OUT):   -70702.33    
                                                   DISCREPANCY (PERCENT):  -0.1250201E-04
 
 SOLVING FOR HEAD 


     2 CALLS TO PCG ROUTINE FOR TIME STEP   1 IN STRESS PERIOD    1
     8 TOTAL ITERATIONS

 MAXIMUM HEAD CHANGE FOR EACH ITERATION (1 INDICATES THE FIRST INNER ITERATION):

    HEAD CHANGE    HEAD CHANGE    HEAD CHANGE    HEAD CHANGE    HEAD CHANGE 
   LAYER,ROW,COL  LAYER,ROW,COL  LAYER,ROW,COL  LAYER,ROW,COL  LAYER,ROW,COL
 ---------------------------------------------------------------------------
  1  0.1352E-01  0 -0.3625E-02  0 -0.2350E-02  0  0.1122E-01  0 -0.1145E-01
   ( 15,  1, 86)  ( 17,  1, 89)  (  8,  1, 12)  ( 11,  1, 49)  ( 11,  1, 49)
  0  0.1656E-02  0 -0.9403E-03  1  0.5636E-03
   ( 11,  1, 51)  ( 11,  1, 70)  ( 11,  1, 55)

 MAXIMUM RESIDUAL FOR EACH ITERATION (1 INDICATES THE FIRST INNER ITERATION):

    RESIDUAL       RESIDUAL       RESIDUAL       RESIDUAL       RESIDUAL    
   LAYER,ROW,COL  LAYER,ROW,COL  LAYER,ROW,COL  LAYER,ROW,COL  LAYER,ROW,COL
 ---------------------------------------------------------------------------
  1  0.1313E+06  0 -0.9188E+05  0 -0.9038E+05  0 -0.2330E+05  0  -5037.    
   ( 21,  1, 89)  ( 19,  1, 89)  ( 19,  1, 89)  ( 19,  1, 89)  ( 17,  1, 87)
  0   2889.      0   2345.      1   2048.    
   ( 22,  1, 87)  ( 22,  1, 87)  ( 22,  1, 87)


 FLOW MODEL IS TRANSIENT
 FLOW MODEL CONTAINS CONSTANT-HEAD CELLS


 MAXIMUM STEPSIZE DURING WHICH ANY PARTICLE CANNOT MOVE MORE THAN ONE CELL
 =  12.85    (WHEN MIN. R.F.=1)  AT K=  17, I=   1, J=  90

 MAXIMUM STEPSIZE WHICH MEETS STABILITY CRITERION OF THE ADVECTION TERM
 (FOR PURE FINITE-DIFFERENCE OPTION, MIXELM=0) 
 =  8.030    (WHEN MIN. R.F.=1)  AT K=  16, I=   1, J=  90


 TOTAL NUMBER OF POINT SOURCES/SINKS PRESENT IN THE FLOW MODEL =    30

 MAXIMUM STEPSIZE WHICH MEETS STABILITY CRITERION OF THE SINK & SOURCE TERM
 =  12.21    (WHEN MIN. R.F.=1)  AT K=  17, I=   1, J=  91

 MAXIMUM STEPSIZE WHICH MEETS STABILITY CRITERION OF THE DISPERSION TERM
 =  4.031    (WHEN MIN. R.F.=1)  AT K=  17, I=   1, J=  90
     1 CALLS TO GCG PACKAGE FOR TRANSPORT TIME STEP 601 IN FLOW TIME STEP   1 STRESS PERIOD   1
     8 TOTAL ITERATIONS
     1 CALLS TO GCG PACKAGE FOR TRANSPORT TIME STEP 601 IN FLOW TIME STEP   1 STRESS PERIOD   1
     8 TOTAL ITERATIONS
 
 SOLVING FOR HEAD 


     2 CALLS TO PCG ROUTINE FOR TIME STEP   1 IN STRESS PERIOD    1
     9 TOTAL ITERATIONS

 MAXIMUM HEAD CHANGE FOR EACH ITERATION (1 INDICATES THE FIRST INNER ITERATION):

    HEAD CHANGE    HEAD CHANGE    HEAD CHANGE    HEAD CHANGE    HEAD CHANGE 
   LAYER,ROW,COL  LAYER,ROW,COL  LAYER,ROW,COL  LAYER,ROW,COL  LAYER,ROW,COL
 ---------------------------------------------------------------------------
  1 -0.1372E-01  0  0.3986E-02  0  0.3913E-02  0 -0.1075E-01  0  0.8818E-02
   ( 15,  1, 86)  ( 17,  1, 89)  (  8,  1, 12)  ( 11,  1, 57)  (  6,  1, 47)
  0 -0.2602E-02  0  0.1317E-02  0  0.8079E-03  1 -0.7117E-03
   ( 11,  1, 66)  ( 11,  1, 66)  ( 11,  1, 49)  ( 11,  1, 49)

 MAXIMUM RESIDUAL FOR EACH ITERATION (1 INDICATES THE FIRST INNER ITERATION):

    RESIDUAL       RESIDUAL       RESIDUAL       RESIDUAL       RESIDUAL    
   LAYER,ROW,COL  LAYER,ROW,COL  LAYER,ROW,COL  LAYER,ROW,COL  LAYER,ROW,COL
 ---------------------------------------------------------------------------
  1 -0.1340E+06  0  0.9494E+05  0  0.9415E+05  0  0.5595E+05  0   5771.    
   ( 21,  1, 89)  ( 19,  1, 89)  ( 19,  1, 89)  ( 19,  1, 89)  ( 17,  1, 87)
  0  -2790.      0  -2628.      0  -1110.      1  -978.3    
   ( 22,  1, 87)  ( 22,  1, 87)  ( 22,  1, 87)  ( 22,  1, 87)


 FLOW MODEL IS TRANSIENT
 FLOW MODEL CONTAINS CONSTANT-HEAD CELLS


 MAXIMUM STEPSIZE DURING WHICH ANY PARTICLE CANNOT MOVE MORE THAN ONE CELL
 =  13.15    (WHEN MIN. R.F.=1)  AT K=  17, I=   1, J=  90

 MAXIMUM STEPSIZE WHICH MEETS STABILITY CRITERION OF THE ADVECTION TERM
 (FOR PURE FINITE-DIFFERENCE OPTION, MIXELM=0) 
 =  7.977    (WHEN MIN. R.F.=1)  AT K=  16, I=   1, J=  90


 TOTAL NUMBER OF POINT SOURCES/SINKS PRESENT IN THE FLOW MODEL =    30

 MAXIMUM STEPSIZE WHICH MEETS STABILITY CRITERION OF THE SINK & SOURCE TERM
 =  12.10    (WHEN MIN. R.F.=1)  AT K=  17, I=   1, J=  91

 MAXIMUM STEPSIZE WHICH MEETS STABILITY CRITERION OF THE DISPERSION TERM
 =  4.335    (WHEN MIN. R.F.=1)  AT K=  17, I=   1, J=  90
     1 CALLS TO GCG PACKAGE FOR TRANSPORT TIME STEP 602 IN FLOW TIME STEP   1 STRESS PERIOD   1
     9 TOTAL ITERATIONS
     1 CALLS TO GCG PACKAGE FOR TRANSPORT TIME STEP 602 IN FLOW TIME STEP   1 STRESS PERIOD   1
     8 TOTAL ITERATIONS
 
 SOLVING FOR HEAD 


     2 CALLS TO PCG ROUTINE FOR TIME STEP   1 IN STRESS PERIOD    1
     8 TOTAL ITERATIONS

 MAXIMUM HEAD CHANGE FOR EACH ITERATION (1 INDICATES THE FIRST INNER ITERATION):

    HEAD CHANGE    HEAD CHANGE    HEAD CHANGE    HEAD CHANGE    HEAD CHANGE 
   LAYER,ROW,COL  LAYER,ROW,COL  LAYER,ROW,COL  LAYER,ROW,COL  LAYER,ROW,COL
 ---------------------------------------------------------------------------
  1  0.1367E-01  0 -0.4010E-02  0 -0.3307E-02  0  0.1260E-01  0 -0.1272E-01
   ( 15,  1, 86)  ( 17,  1, 89)  (  8,  1, 12)  ( 11,  1, 49)  ( 11,  1, 49)
  0 -0.1855E-02  0 -0.7980E-03  1 -0.5230E-03
   ( 11,  1, 66)  ( 11,  1, 37)  (  8,  1, 42)

 MAXIMUM RESIDUAL FOR EACH ITERATION (1 INDICATES THE FIRST INNER ITERATION):

    RESIDUAL       RESIDUAL       RESIDUAL       RESIDUAL       RESIDUAL    
   LAYER,ROW,COL  LAYER,ROW,COL  LAYER,ROW,COL  LAYER,ROW,COL  LAYER,ROW,COL
 ---------------------------------------------------------------------------
  1  0.1333E+06  0 -0.9496E+05  0 -0.9405E+05  0 -0.2512E+05  0  -5230.    
   ( 21,  1, 89)  ( 19,  1, 89)  ( 19,  1, 89)  ( 19,  1, 89)  ( 17,  1, 87)
  0   2776.      0   2511.      1   1988.    
   ( 22,  1, 87)  ( 22,  1, 87)  ( 22,  1, 87)


 FLOW MODEL IS TRANSIENT
 FLOW MODEL CONTAINS CONSTANT-HEAD CELLS


 MAXIMUM STEPSIZE DURING WHICH ANY PARTICLE CANNOT MOVE MORE THAN ONE CELL
 =  12.84    (WHEN MIN. R.F.=1)  AT K=  17, I=   1, J=  90

 MAXIMUM STEPSIZE WHICH MEETS STABILITY CRITERION OF THE ADVECTION TERM
 (FOR PURE FINITE-DIFFERENCE OPTION, MIXELM=0) 
 =  8.026    (WHEN MIN. R.F.=1)  AT K=  16, I=   1, J=  90


 TOTAL NUMBER OF POINT SOURCES/SINKS PRESENT IN THE FLOW MODEL =    30

 MAXIMUM STEPSIZE WHICH MEETS STABILITY CRITERION OF THE SINK & SOURCE TERM
 =  12.18    (WHEN MIN. R.F.=1)  AT K=  17, I=   1, J=  91

 MAXIMUM STEPSIZE WHICH MEETS STABILITY CRITERION OF THE DISPERSION TERM
 =  4.020    (WHEN MIN. R.F.=1)  AT K=  17, I=   1, J=  90
     1 CALLS TO GCG PACKAGE FOR TRANSPORT TIME STEP 603 IN FLOW TIME STEP   1 STRESS PERIOD   1
     8 TOTAL ITERATIONS
     1 CALLS TO GCG PACKAGE FOR TRANSPORT TIME STEP 603 IN FLOW TIME STEP   1 STRESS PERIOD   1
     8 TOTAL ITERATIONS
 
 SOLVING FOR HEAD 


     2 CALLS TO PCG ROUTINE FOR TIME STEP   1 IN STRESS PERIOD    1
     9 TOTAL ITERATIONS

 MAXIMUM HEAD CHANGE FOR EACH ITERATION (1 INDICATES THE FIRST INNER ITERATION):

    HEAD CHANGE    HEAD CHANGE    HEAD CHANGE    HEAD CHANGE    HEAD CHANGE 
   LAYER,ROW,COL  LAYER,ROW,COL  LAYER,ROW,COL  LAYER,ROW,COL  LAYER,ROW,COL
 ---------------------------------------------------------------------------
  1 -0.1368E-01  0 -0.8869E-02  0  0.4213E-02  0  0.9574E-02  0 -0.6224E-02
   ( 15,  1, 86)  (  6,  1, 41)  (  7,  1, 12)  (  6,  1, 42)  (  8,  1, 47)
  0 -0.5202E-02  0  0.1863E-02  0  0.8446E-03  1  0.6232E-03
   ( 11,  1, 49)  ( 11,  1, 49)  ( 11,  1, 64)  ( 11,  1, 54)

 MAXIMUM RESIDUAL FOR EACH ITERATION (1 INDICATES THE FIRST INNER ITERATION):

    RESIDUAL       RESIDUAL       RESIDUAL       RESIDUAL       RESIDUAL    
   LAYER,ROW,COL  LAYER,ROW,COL  LAYER,ROW,COL  LAYER,ROW,COL  LAYER,ROW,COL
 ---------------------------------------------------------------------------
  1 -0.1317E+06  0  0.9197E+05  0  0.9128E+05  0  0.7501E+05  0   6483.    
   ( 21,  1, 89)  ( 19,  1, 89)  ( 19,  1, 89)  ( 19,  1, 89)  ( 17,  1, 87)
  0  -3047.      0  -2620.      0  -1420.      1  -1266.    
   ( 17,  1, 88)  ( 22,  1, 87)  ( 22,  1, 87)  ( 22,  1, 87)


 FLOW MODEL IS TRANSIENT
 FLOW MODEL CONTAINS CONSTANT-HEAD CELLS


 MAXIMUM STEPSIZE DURING WHICH ANY PARTICLE CANNOT MOVE MORE THAN ONE CELL
 =  13.18    (WHEN MIN. R.F.=1)  AT K=  17, I=   1, J=  90

 MAXIMUM STEPSIZE WHICH MEETS STABILITY CRITERION OF THE ADVECTION TERM
 (FOR PURE FINITE-DIFFERENCE OPTION, MIXELM=0) 
 =  7.985    (WHEN MIN. R.F.=1)  AT K=  16, I=   1, J=  90


 TOTAL NUMBER OF POINT SOURCES/SINKS PRESENT IN THE FLOW MODEL =    30

 MAXIMUM STEPSIZE WHICH MEETS STABILITY CRITERION OF THE SINK & SOURCE TERM
 =  12.12    (WHEN MIN. R.F.=1)  AT K=  17, I=   1, J=  91

 MAXIMUM STEPSIZE WHICH MEETS STABILITY CRITERION OF THE DISPERSION TERM
 =  4.351    (WHEN MIN. R.F.=1)  AT K=  17, I=   1, J=  90
     1 CALLS TO GCG PACKAGE FOR TRANSPORT TIME STEP 604 IN FLOW TIME STEP   1 STRESS PERIOD   1
    10 TOTAL ITERATIONS
     1 CALLS TO GCG PACKAGE FOR TRANSPORT TIME STEP 604 IN FLOW TIME STEP   1 STRESS PERIOD   1
     8 TOTAL ITERATIONS
 
 SOLVING FOR HEAD 


     2 CALLS TO PCG ROUTINE FOR TIME STEP   1 IN STRESS PERIOD    1
     9 TOTAL ITERATIONS

 MAXIMUM HEAD CHANGE FOR EACH ITERATION (1 INDICATES THE FIRST INNER ITERATION):

    HEAD CHANGE    HEAD CHANGE    HEAD CHANGE    HEAD CHANGE    HEAD CHANGE 
   LAYER,ROW,COL  LAYER,ROW,COL  LAYER,ROW,COL  LAYER,ROW,COL  LAYER,ROW,COL
 ---------------------------------------------------------------------------
  1  0.1365E-01  0 -0.4166E-02  0 -0.3273E-02  0 -0.1059E-01  0  0.1205E-01
   ( 15,  1, 86)  ( 17,  1, 89)  (  8,  1, 12)  ( 11,  1, 54)  ( 11,  1, 54)
  0 -0.2066E-02  0 -0.1105E-02  0 -0.6687E-03  1  0.4040E-03
   ( 11,  1, 53)  ( 11,  1, 70)  ( 11,  1, 49)  ( 11,  1, 70)

 MAXIMUM RESIDUAL FOR EACH ITERATION (1 INDICATES THE FIRST INNER ITERATION):

    RESIDUAL       RESIDUAL       RESIDUAL       RESIDUAL       RESIDUAL    
   LAYER,ROW,COL  LAYER,ROW,COL  LAYER,ROW,COL  LAYER,ROW,COL  LAYER,ROW,COL
 ---------------------------------------------------------------------------
  1  0.1338E+06  0 -0.9524E+05  0 -0.9432E+05  0 -0.2176E+05  0   5166.    
   ( 21,  1, 89)  ( 19,  1, 89)  ( 19,  1, 89)  ( 19,  1, 89)  ( 17,  1, 88)
  0   2753.      0   2281.      0   731.6      1   631.0    
   ( 22,  1, 87)  ( 22,  1, 87)  ( 22,  1, 87)  ( 22,  1, 87)


 FLOW MODEL IS TRANSIENT
 FLOW MODEL CONTAINS CONSTANT-HEAD CELLS


 MAXIMUM STEPSIZE DURING WHICH ANY PARTICLE CANNOT MOVE MORE THAN ONE CELL
 =  12.86    (WHEN MIN. R.F.=1)  AT K=  17, I=   1, J=  90

 MAXIMUM STEPSIZE WHICH MEETS STABILITY CRITERION OF THE ADVECTION TERM
 (FOR PURE FINITE-DIFFERENCE OPTION, MIXELM=0) 
 =  8.038    (WHEN MIN. R.F.=1)  AT K=  16, I=   1, J=  90


 TOTAL NUMBER OF POINT SOURCES/SINKS PRESENT IN THE FLOW MODEL =    30

 MAXIMUM STEPSIZE WHICH MEETS STABILITY CRITERION OF THE SINK & SOURCE TERM
 =  12.21    (WHEN MIN. R.F.=1)  AT K=  17, I=   1, J=  91

 MAXIMUM STEPSIZE WHICH MEETS STABILITY CRITERION OF THE DISPERSION TERM
 =  4.028    (WHEN MIN. R.F.=1)  AT K=  17, I=   1, J=  90
     1 CALLS TO GCG PACKAGE FOR TRANSPORT TIME STEP 605 IN FLOW TIME STEP   1 STRESS PERIOD   1
     8 TOTAL ITERATIONS
  MAXIMUM CONCENTRATION CHANGES FOR EACH ITERATION:
  MAX. CHANGE LAYER,ROW,COL MAX. CHANGE LAYER,ROW,COL MAX. CHANGE LAYER,ROW,COL MAX. CHANGE LAYER,ROW,COL MAX. CHANGE LAYER,ROW,COL
 ------------------------------------------------------------------------------------------------------------------------------------
   0.5267E-01 ( 20,  1, 87)  0.4285E-02 ( 19,  1, 89)  0.2084E-02 ( 17,  1, 86)  0.4664E-03 ( 20,  1, 89)  0.9273E-04 ( 16,  1, 89)
   0.2056E-04 ( 20,  1, 89)  0.1987E-04 ( 16,  1, 90)  0.7323E-06 ( 17,  1, 90)
     1 CALLS TO GCG PACKAGE FOR TRANSPORT TIME STEP 605 IN FLOW TIME STEP   1 STRESS PERIOD   1
     8 TOTAL ITERATIONS
  MAXIMUM CONCENTRATION CHANGES FOR EACH ITERATION:
  MAX. CHANGE LAYER,ROW,COL MAX. CHANGE LAYER,ROW,COL MAX. CHANGE LAYER,ROW,COL MAX. CHANGE LAYER,ROW,COL MAX. CHANGE LAYER,ROW,COL
 ------------------------------------------------------------------------------------------------------------------------------------
   0.5918E-01 ( 20,  1, 87)  0.4970E-02 ( 19,  1, 89)  0.2039E-02 ( 18,  1, 86)  0.4154E-03 ( 20,  1, 89)  0.1125E-03 ( 16,  1, 89)
   0.2101E-04 ( 23,  1, 87)  0.1773E-04 ( 16,  1, 90)  0.8412E-06 ( 17,  1, 90)
 
 SOLVING FOR HEAD 


     3 CALLS TO PCG ROUTINE FOR TIME STEP   1 IN STRESS PERIOD    1
     9 TOTAL ITERATIONS

 MAXIMUM HEAD CHANGE FOR EACH ITERATION (1 INDICATES THE FIRST INNER ITERATION):

    HEAD CHANGE    HEAD CHANGE    HEAD CHANGE    HEAD CHANGE    HEAD CHANGE 
   LAYER,ROW,COL  LAYER,ROW,COL  LAYER,ROW,COL  LAYER,ROW,COL  LAYER,ROW,COL
 ---------------------------------------------------------------------------
  1 -0.1343E-01  0  0.3758E-02  0  0.2632E-02  0  0.9197E-02  0 -0.8890E-02
   ( 15,  1, 86)  ( 17,  1, 89)  (  7,  1, 12)  (  7,  1, 48)  (  6,  1, 48)
  0 -0.7555E-03  1  0.1222E-02  0 -0.6352E-03  1 -0.4156E-03
   ( 11,  1, 52)  ( 11,  1, 54)  ( 11,  1, 54)  ( 11,  1, 66)

 MAXIMUM RESIDUAL FOR EACH ITERATION (1 INDICATES THE FIRST INNER ITERATION):

    RESIDUAL       RESIDUAL       RESIDUAL       RESIDUAL       RESIDUAL    
   LAYER,ROW,COL  LAYER,ROW,COL  LAYER,ROW,COL  LAYER,ROW,COL  LAYER,ROW,COL
 ---------------------------------------------------------------------------
  1 -0.1311E+06  0  0.9203E+05  0  0.9091E+05  0  0.4164E+05  0   6260.    
   ( 21,  1, 89)  ( 19,  1, 89)  ( 19,  1, 89)  ( 19,  1, 89)  ( 17,  1, 87)
  0  -2866.      1  -2113.      0  -923.2      1  -865.6    
   ( 22,  1, 87)  ( 22,  1, 87)  ( 22,  1, 87)  ( 22,  1, 87)


 FLOW MODEL IS TRANSIENT
 FLOW MODEL CONTAINS CONSTANT-HEAD CELLS


 MAXIMUM STEPSIZE DURING WHICH ANY PARTICLE CANNOT MOVE MORE THAN ONE CELL
 =  13.23    (WHEN MIN. R.F.=1)  AT K=  17, I=   1, J=  90

 MAXIMUM STEPSIZE WHICH MEETS STABILITY CRITERION OF THE ADVECTION TERM
 (FOR PURE FINITE-DIFFERENCE OPTION, MIXELM=0) 
 =  8.008    (WHEN MIN. R.F.=1)  AT K=  16, I=   1, J=  90


 TOTAL NUMBER OF POINT SOURCES/SINKS PRESENT IN THE FLOW MODEL =    30

 MAXIMUM STEPSIZE WHICH MEETS STABILITY CRITERION OF THE SINK & SOURCE TERM
 =  12.19    (WHEN MIN. R.F.=1)  AT K=  17, I=   1, J=  91

 MAXIMUM STEPSIZE WHICH MEETS STABILITY CRITERION OF THE DISPERSION TERM
 =  4.374    (WHEN MIN. R.F.=1)  AT K=  17, I=   1, J=  90
     1 CALLS TO GCG PACKAGE FOR TRANSPORT TIME STEP 606 IN FLOW TIME STEP   1 STRESS PERIOD   1
     9 TOTAL ITERATIONS
     1 CALLS TO GCG PACKAGE FOR TRANSPORT TIME STEP 606 IN FLOW TIME STEP   1 STRESS PERIOD   1
     8 TOTAL ITERATIONS
 
 SOLVING FOR HEAD 


     2 CALLS TO PCG ROUTINE FOR TIME STEP   1 IN STRESS PERIOD    1
     9 TOTAL ITERATIONS

 MAXIMUM HEAD CHANGE FOR EACH ITERATION (1 INDICATES THE FIRST INNER ITERATION):

    HEAD CHANGE    HEAD CHANGE    HEAD CHANGE    HEAD CHANGE    HEAD CHANGE 
   LAYER,ROW,COL  LAYER,ROW,COL  LAYER,ROW,COL  LAYER,ROW,COL  LAYER,ROW,COL
 ---------------------------------------------------------------------------
  1  0.1325E-01  0 -0.1743E-01  0  0.1028E-01  0 -0.2446E-02  0  0.4336E-02
   ( 15,  1, 86)  (  8,  1, 12)  (  8,  1, 12)  ( 11,  1, 52)  ( 11,  1, 52)
  0 -0.1864E-02  0 -0.1470E-02  0  0.5354E-03  1  0.5751E-03
   ( 11,  1, 52)  ( 11,  1, 68)  ( 11,  1, 67)  ( 11,  1, 70)

 MAXIMUM RESIDUAL FOR EACH ITERATION (1 INDICATES THE FIRST INNER ITERATION):

    RESIDUAL       RESIDUAL       RESIDUAL       RESIDUAL       RESIDUAL    
   LAYER,ROW,COL  LAYER,ROW,COL  LAYER,ROW,COL  LAYER,ROW,COL  LAYER,ROW,COL
 ---------------------------------------------------------------------------
  1  0.1342E+06  0  0.1247E+06  0 -0.9258E+05  0 -0.1255E+05  0   3192.    
   ( 21,  1, 89)  ( 21,  1, 89)  ( 19,  1, 89)  ( 17,  1, 87)  ( 22,  1, 87)
  0   2878.      0   1902.      0   767.9      1   675.2    
   ( 22,  1, 87)  ( 22,  1, 87)  ( 22,  1, 87)  ( 22,  1, 87)


 FLOW MODEL IS TRANSIENT
 FLOW MODEL CONTAINS CONSTANT-HEAD CELLS


 MAXIMUM STEPSIZE DURING WHICH ANY PARTICLE CANNOT MOVE MORE THAN ONE CELL
 =  12.88    (WHEN MIN. R.F.=1)  AT K=  17, I=   1, J=  90

 MAXIMUM STEPSIZE WHICH MEETS STABILITY CRITERION OF THE ADVECTION TERM
 (FOR PURE FINITE-DIFFERENCE OPTION, MIXELM=0) 
 =  8.039    (WHEN MIN. R.F.=1)  AT K=  16, I=   1, J=  90


 TOTAL NUMBER OF POINT SOURCES/SINKS PRESENT IN THE FLOW MODEL =    30

 MAXIMUM STEPSIZE WHICH MEETS STABILITY CRITERION OF THE SINK & SOURCE TERM
 =  12.22    (WHEN MIN. R.F.=1)  AT K=  17, I=   1, J=  91

 MAXIMUM STEPSIZE WHICH MEETS STABILITY CRITERION OF THE DISPERSION TERM
 =  4.041    (WHEN MIN. R.F.=1)  AT K=  17, I=   1, J=  90
     1 CALLS TO GCG PACKAGE FOR TRANSPORT TIME STEP 607 IN FLOW TIME STEP   1 STRESS PERIOD   1
     8 TOTAL ITERATIONS
     1 CALLS TO GCG PACKAGE FOR TRANSPORT TIME STEP 607 IN FLOW TIME STEP   1 STRESS PERIOD   1
     8 TOTAL ITERATIONS
 
 SOLVING FOR HEAD 


     2 CALLS TO PCG ROUTINE FOR TIME STEP   1 IN STRESS PERIOD    1
    10 TOTAL ITERATIONS

 MAXIMUM HEAD CHANGE FOR EACH ITERATION (1 INDICATES THE FIRST INNER ITERATION):

    HEAD CHANGE    HEAD CHANGE    HEAD CHANGE    HEAD CHANGE    HEAD CHANGE 
   LAYER,ROW,COL  LAYER,ROW,COL  LAYER,ROW,COL  LAYER,ROW,COL  LAYER,ROW,COL
 ---------------------------------------------------------------------------
  1 -0.1346E-01  0  0.3655E-02  0  0.2336E-02  0  0.7898E-02  0 -0.8628E-02
   ( 15,  1, 86)  ( 17,  1, 89)  (  7,  1, 12)  (  8,  1, 44)  (  8,  1, 44)
  0 -0.1267E-02  0  0.1009E-02  0  0.1157E-02  0 -0.9224E-03  1  0.1500E-03
   ( 11,  1, 37)  ( 11,  1, 53)  ( 11,  1, 70)  ( 11,  1, 69)  ( 11,  1, 64)

 MAXIMUM RESIDUAL FOR EACH ITERATION (1 INDICATES THE FIRST INNER ITERATION):

    RESIDUAL       RESIDUAL       RESIDUAL       RESIDUAL       RESIDUAL    
   LAYER,ROW,COL  LAYER,ROW,COL  LAYER,ROW,COL  LAYER,ROW,COL  LAYER,ROW,COL
 ---------------------------------------------------------------------------
  1 -0.1354E+06  0  0.9564E+05  0  0.9385E+05  0  0.2939E+05  0   5807.    
   ( 21,  1, 89)  ( 19,  1, 89)  ( 19,  1, 89)  ( 19,  1, 89)  ( 17,  1, 87)
  0  -2808.      0  -2518.      0  -933.9      0   312.0      1   270.2    
   ( 22,  1, 87)  ( 22,  1, 87)  ( 22,  1, 87)  ( 18,  1, 90)  ( 18,  1, 90)


 FLOW MODEL IS TRANSIENT
 FLOW MODEL CONTAINS CONSTANT-HEAD CELLS


 MAXIMUM STEPSIZE DURING WHICH ANY PARTICLE CANNOT MOVE MORE THAN ONE CELL
 =  13.20    (WHEN MIN. R.F.=1)  AT K=  17, I=   1, J=  90

 MAXIMUM STEPSIZE WHICH MEETS STABILITY CRITERION OF THE ADVECTION TERM
 (FOR PURE FINITE-DIFFERENCE OPTION, MIXELM=0) 
 =  8.000    (WHEN MIN. R.F.=1)  AT K=  16, I=   1, J=  90


 TOTAL NUMBER OF POINT SOURCES/SINKS PRESENT IN THE FLOW MODEL =    30

 MAXIMUM STEPSIZE WHICH MEETS STABILITY CRITERION OF THE SINK & SOURCE TERM
 =  12.17    (WHEN MIN. R.F.=1)  AT K=  17, I=   1, J=  91

 MAXIMUM STEPSIZE WHICH MEETS STABILITY CRITERION OF THE DISPERSION TERM
 =  4.355    (WHEN MIN. R.F.=1)  AT K=  17, I=   1, J=  90
     1 CALLS TO GCG PACKAGE FOR TRANSPORT TIME STEP 608 IN FLOW TIME STEP   1 STRESS PERIOD   1
     9 TOTAL ITERATIONS
     1 CALLS TO GCG PACKAGE FOR TRANSPORT TIME STEP 608 IN FLOW TIME STEP   1 STRESS PERIOD   1
     8 TOTAL ITERATIONS
 
 SOLVING FOR HEAD 


     2 CALLS TO PCG ROUTINE FOR TIME STEP   1 IN STRESS PERIOD    1
     9 TOTAL ITERATIONS

 MAXIMUM HEAD CHANGE FOR EACH ITERATION (1 INDICATES THE FIRST INNER ITERATION):

    HEAD CHANGE    HEAD CHANGE    HEAD CHANGE    HEAD CHANGE    HEAD CHANGE 
   LAYER,ROW,COL  LAYER,ROW,COL  LAYER,ROW,COL  LAYER,ROW,COL  LAYER,ROW,COL
 ---------------------------------------------------------------------------
  1  0.1346E-01  0 -0.3507E-02  0 -0.3668E-02  0 -0.4321E-02  0  0.7761E-02
   ( 15,  1, 86)  ( 17,  1, 89)  (  8,  1, 12)  ( 11,  1, 64)  ( 11,  1, 64)
  0 -0.2953E-02  0 -0.1042E-02  0 -0.8070E-03  1  0.6965E-03
   ( 11,  1, 64)  ( 11,  1, 53)  ( 11,  1, 70)  ( 11,  1, 68)

 MAXIMUM RESIDUAL FOR EACH ITERATION (1 INDICATES THE FIRST INNER ITERATION):

    RESIDUAL       RESIDUAL       RESIDUAL       RESIDUAL       RESIDUAL    
   LAYER,ROW,COL  LAYER,ROW,COL  LAYER,ROW,COL  LAYER,ROW,COL  LAYER,ROW,COL
 ---------------------------------------------------------------------------
  1  0.1311E+06  0 -0.9115E+05  0 -0.8266E+05  0 -0.1250E+05  0   3186.    
   ( 21,  1, 89)  ( 19,  1, 89)  ( 19,  1, 89)  ( 17,  1, 87)  ( 22,  1, 87)
  0   2884.      0   1988.      0   692.7      1   602.0    
   ( 22,  1, 87)  ( 22,  1, 87)  ( 22,  1, 87)  ( 22,  1, 87)


 FLOW MODEL IS TRANSIENT
 FLOW MODEL CONTAINS CONSTANT-HEAD CELLS


 MAXIMUM STEPSIZE DURING WHICH ANY PARTICLE CANNOT MOVE MORE THAN ONE CELL
 =  12.85    (WHEN MIN. R.F.=1)  AT K=  17, I=   1, J=  90

 MAXIMUM STEPSIZE WHICH MEETS STABILITY CRITERION OF THE ADVECTION TERM
 (FOR PURE FINITE-DIFFERENCE OPTION, MIXELM=0) 
 =  8.030    (WHEN MIN. R.F.=1)  AT K=  16, I=   1, J=  90


 TOTAL NUMBER OF POINT SOURCES/SINKS PRESENT IN THE FLOW MODEL =    30

 MAXIMUM STEPSIZE WHICH MEETS STABILITY CRITERION OF THE SINK & SOURCE TERM
 =  12.20    (WHEN MIN. R.F.=1)  AT K=  17, I=   1, J=  91

 MAXIMUM STEPSIZE WHICH MEETS STABILITY CRITERION OF THE DISPERSION TERM
 =  4.031    (WHEN MIN. R.F.=1)  AT K=  17, I=   1, J=  90
     1 CALLS TO GCG PACKAGE FOR TRANSPORT TIME STEP 609 IN FLOW TIME STEP   1 STRESS PERIOD   1
     8 TOTAL ITERATIONS
     1 CALLS TO GCG PACKAGE FOR TRANSPORT TIME STEP 609 IN FLOW TIME STEP   1 STRESS PERIOD   1
     8 TOTAL ITERATIONS
 
 SOLVING FOR HEAD 


     2 CALLS TO PCG ROUTINE FOR TIME STEP   1 IN STRESS PERIOD    1
    10 TOTAL ITERATIONS

 MAXIMUM HEAD CHANGE FOR EACH ITERATION (1 INDICATES THE FIRST INNER ITERATION):

    HEAD CHANGE    HEAD CHANGE    HEAD CHANGE    HEAD CHANGE    HEAD CHANGE 
   LAYER,ROW,COL  LAYER,ROW,COL  LAYER,ROW,COL  LAYER,ROW,COL  LAYER,ROW,COL
 ---------------------------------------------------------------------------
  1 -0.1336E-01  0  0.3506E-02  0  0.2642E-02  0 -0.8099E-02  0  0.8148E-02
   ( 15,  1, 86)  ( 17,  1, 89)  (  8,  1, 12)  (  7,  1, 52)  (  7,  1, 52)
  0 -0.2055E-02  0  0.1261E-02  0  0.1204E-02  0 -0.8124E-03  1 -0.2040E-03
   ( 11,  1, 63)  ( 11,  1, 62)  ( 11,  1, 70)  ( 11,  1, 70)  ( 11,  1, 56)

 MAXIMUM RESIDUAL FOR EACH ITERATION (1 INDICATES THE FIRST INNER ITERATION):

    RESIDUAL       RESIDUAL       RESIDUAL       RESIDUAL       RESIDUAL    
   LAYER,ROW,COL  LAYER,ROW,COL  LAYER,ROW,COL  LAYER,ROW,COL  LAYER,ROW,COL
 ---------------------------------------------------------------------------
  1 -0.1312E+06  0  0.9174E+05  0  0.8864E+05  0  0.3363E+05  0   5964.    
   ( 21,  1, 89)  ( 19,  1, 89)  ( 19,  1, 89)  ( 19,  1, 89)  ( 17,  1, 87)
  0  -2853.      0  -2447.      0  -879.7      0  -355.1      1  -319.6    
   ( 22,  1, 87)  ( 22,  1, 87)  ( 22,  1, 87)  ( 22,  1, 87)  ( 22,  1, 87)


 FLOW MODEL IS TRANSIENT
 FLOW MODEL CONTAINS CONSTANT-HEAD CELLS


 MAXIMUM STEPSIZE DURING WHICH ANY PARTICLE CANNOT MOVE MORE THAN ONE CELL
 =  13.19    (WHEN MIN. R.F.=1)  AT K=  17, I=   1, J=  90

 MAXIMUM STEPSIZE WHICH MEETS STABILITY CRITERION OF THE ADVECTION TERM
 (FOR PURE FINITE-DIFFERENCE OPTION, MIXELM=0) 
 =  7.998    (WHEN MIN. R.F.=1)  AT K=  16, I=   1, J=  90


 TOTAL NUMBER OF POINT SOURCES/SINKS PRESENT IN THE FLOW MODEL =    30

 MAXIMUM STEPSIZE WHICH MEETS STABILITY CRITERION OF THE SINK & SOURCE TERM
 =  12.17    (WHEN MIN. R.F.=1)  AT K=  17, I=   1, J=  91

 MAXIMUM STEPSIZE WHICH MEETS STABILITY CRITERION OF THE DISPERSION TERM
 =  4.345    (WHEN MIN. R.F.=1)  AT K=  17, I=   1, J=  90
     1 CALLS TO GCG PACKAGE FOR TRANSPORT TIME STEP 610 IN FLOW TIME STEP   1 STRESS PERIOD   1
     9 TOTAL ITERATIONS
  MAXIMUM CONCENTRATION CHANGES FOR EACH ITERATION:
  MAX. CHANGE LAYER,ROW,COL MAX. CHANGE LAYER,ROW,COL MAX. CHANGE LAYER,ROW,COL MAX. CHANGE LAYER,ROW,COL MAX. CHANGE LAYER,ROW,COL
 ------------------------------------------------------------------------------------------------------------------------------------
   0.4952E-01 ( 20,  1, 87)  0.3302E-02 ( 19,  1, 87)  0.2227E-02 ( 18,  1, 87)  0.2159E-03 ( 16,  1, 88)  0.1388E-03 ( 16,  1, 89)
   0.3044E-04 ( 16,  1, 90)  0.2593E-05 ( 21,  1, 78)  0.2357E-05 ( 21,  1, 78)  0.6889E-06 ( 16,  1, 89)
     1 CALLS TO GCG PACKAGE FOR TRANSPORT TIME STEP 610 IN FLOW TIME STEP   1 STRESS PERIOD   1
     8 TOTAL ITERATIONS
  MAXIMUM CONCENTRATION CHANGES FOR EACH ITERATION:
  MAX. CHANGE LAYER,ROW,COL MAX. CHANGE LAYER,ROW,COL MAX. CHANGE LAYER,ROW,COL MAX. CHANGE LAYER,ROW,COL MAX. CHANGE LAYER,ROW,COL
 ------------------------------------------------------------------------------------------------------------------------------------
   0.5495E-01 ( 20,  1, 87)  0.3773E-02 ( 19,  1, 87)  0.2321E-02 ( 18,  1, 87)  0.2188E-03 ( 16,  1, 88)  0.1362E-03 ( 16,  1, 89)
   0.3527E-04 ( 16,  1, 90)  0.5325E-05 ( 17,  1, 90)  0.5729E-06 ( 16,  1, 89)



 >>>>>>>>>>>>>>>>>>>>>>>>>>>>>>>>>>>>>>>>>>>>>>>>>>>>>>>FOR COMPONENT NO. 01<<<<<<<<<<<<<<<<<<<<<<<<<<<<<<<<<<<<<<<<<<<<<<<<<<<<<<<


                                            -------------------------------------------
                                                      TRANSPORT STEP NO.  610
                                            -------------------------------------------

 TOTAL ELAPSED TIME SINCE BEGINNING OF SIMULATION =   30500.00    D   
 .....................................................................

                     CUMMULATIVE MASS BUDGETS AT END OF TRANSPORT STEP  610, TIME STEP    1, STRESS PERIOD    1
                     ------------------------------------------------------------------------------------------

                                                             IN                           OUT
                                                      ----------------             ----------------
                               CONSTANT CONCENTRATION:    0.000000                    0.000000    
                                        CONSTANT HEAD:   0.1206906E+10              -0.1206697E+10
                                                WELLS:    0.000000                    0.000000    
                                             RECHARGE:    0.000000                    0.000000    
                               1ST/0TH ORDER REACTION:    0.000000                    0.000000    
                                MASS STORAGE (SOLUTE):   0.1687211E+09              -0.1689306E+09
                            ---------------------------------------------------------------------------
                                              [TOTAL]:   0.1375628E+10 KG           -0.1375628E+10 KG  

                                                          NET (IN - OUT):   -215.7324    
                                                   DISCREPANCY (PERCENT):  -0.1568246E-04



 >>>>>>>>>>>>>>>>>>>>>>>>>>>>>>>>>>>>>>>>>>>>>>>>>>>>>>>FOR COMPONENT NO. 02<<<<<<<<<<<<<<<<<<<<<<<<<<<<<<<<<<<<<<<<<<<<<<<<<<<<<<<


                                            -------------------------------------------
                                                      TRANSPORT STEP NO.  610
                                            -------------------------------------------

 TOTAL ELAPSED TIME SINCE BEGINNING OF SIMULATION =   30500.00    D   
 .....................................................................

                     CUMMULATIVE MASS BUDGETS AT END OF TRANSPORT STEP  610, TIME STEP    1, STRESS PERIOD    1
                     ------------------------------------------------------------------------------------------

                                                             IN                           OUT
                                                      ----------------             ----------------
                               CONSTANT CONCENTRATION:    0.000000                    0.000000    
                                        CONSTANT HEAD:    0.000000                  -0.2091863E+12
                                                WELLS:    0.000000                    0.000000    
                                             RECHARGE:    0.000000                    0.000000    
                               1ST/0TH ORDER REACTION:   0.5047750E+12                0.000000    
                                MASS STORAGE (SOLUTE):   0.7141407E+11              -0.3670028E+12
                            ---------------------------------------------------------------------------
                                              [TOTAL]:   0.5761901E+12 KG           -0.5761902E+12 KG  

                                                          NET (IN - OUT):   -72211.92    
                                                   DISCREPANCY (PERCENT):  -0.1253265E-04
 
 SOLVING FOR HEAD 


     2 CALLS TO PCG ROUTINE FOR TIME STEP   1 IN STRESS PERIOD    1
     9 TOTAL ITERATIONS

 MAXIMUM HEAD CHANGE FOR EACH ITERATION (1 INDICATES THE FIRST INNER ITERATION):

    HEAD CHANGE    HEAD CHANGE    HEAD CHANGE    HEAD CHANGE    HEAD CHANGE 
   LAYER,ROW,COL  LAYER,ROW,COL  LAYER,ROW,COL  LAYER,ROW,COL  LAYER,ROW,COL
 ---------------------------------------------------------------------------
  1  0.1346E-01  0 -0.3472E-02  0 -0.2348E-02  0  0.4587E-02  0 -0.6547E-02
   ( 15,  1, 86)  ( 17,  1, 89)  (  8,  1, 12)  ( 11,  1, 55)  ( 11,  1, 55)
  0  0.2674E-02  0 -0.1284E-02  0  0.8582E-03  1  0.6169E-03
   ( 11,  1, 54)  ( 11,  1, 63)  ( 11,  1, 63)  ( 11,  1, 70)

 MAXIMUM RESIDUAL FOR EACH ITERATION (1 INDICATES THE FIRST INNER ITERATION):

    RESIDUAL       RESIDUAL       RESIDUAL       RESIDUAL       RESIDUAL    
   LAYER,ROW,COL  LAYER,ROW,COL  LAYER,ROW,COL  LAYER,ROW,COL  LAYER,ROW,COL
 ---------------------------------------------------------------------------
  1  0.1292E+06  0 -0.8983E+05  0 -0.8759E+05  0 -0.1298E+05  0   3808.    
   ( 21,  1, 89)  ( 19,  1, 89)  ( 19,  1, 89)  ( 17,  1, 87)  ( 18,  1, 89)
  0   2899.      0   1782.      0   640.6      1   550.2    
   ( 22,  1, 87)  ( 22,  1, 87)  ( 22,  1, 87)  ( 22,  1, 87)


 FLOW MODEL IS TRANSIENT
 FLOW MODEL CONTAINS CONSTANT-HEAD CELLS


 MAXIMUM STEPSIZE DURING WHICH ANY PARTICLE CANNOT MOVE MORE THAN ONE CELL
 =  12.85    (WHEN MIN. R.F.=1)  AT K=  17, I=   1, J=  90

 MAXIMUM STEPSIZE WHICH MEETS STABILITY CRITERION OF THE ADVECTION TERM
 (FOR PURE FINITE-DIFFERENCE OPTION, MIXELM=0) 
 =  8.028    (WHEN MIN. R.F.=1)  AT K=  16, I=   1, J=  90


 TOTAL NUMBER OF POINT SOURCES/SINKS PRESENT IN THE FLOW MODEL =    30

 MAXIMUM STEPSIZE WHICH MEETS STABILITY CRITERION OF THE SINK & SOURCE TERM
 =  12.19    (WHEN MIN. R.F.=1)  AT K=  17, I=   1, J=  91

 MAXIMUM STEPSIZE WHICH MEETS STABILITY CRITERION OF THE DISPERSION TERM
 =  4.031    (WHEN MIN. R.F.=1)  AT K=  17, I=   1, J=  90
     1 CALLS TO GCG PACKAGE FOR TRANSPORT TIME STEP 611 IN FLOW TIME STEP   1 STRESS PERIOD   1
     8 TOTAL ITERATIONS
     1 CALLS TO GCG PACKAGE FOR TRANSPORT TIME STEP 611 IN FLOW TIME STEP   1 STRESS PERIOD   1
     8 TOTAL ITERATIONS
 
 SOLVING FOR HEAD 


     2 CALLS TO PCG ROUTINE FOR TIME STEP   1 IN STRESS PERIOD    1
     8 TOTAL ITERATIONS

 MAXIMUM HEAD CHANGE FOR EACH ITERATION (1 INDICATES THE FIRST INNER ITERATION):

    HEAD CHANGE    HEAD CHANGE    HEAD CHANGE    HEAD CHANGE    HEAD CHANGE 
   LAYER,ROW,COL  LAYER,ROW,COL  LAYER,ROW,COL  LAYER,ROW,COL  LAYER,ROW,COL
 ---------------------------------------------------------------------------
  1 -0.1335E-01  0  0.3451E-02  0  0.3261E-02  0  0.8495E-02  0 -0.9778E-02
   ( 15,  1, 86)  ( 17,  1, 89)  (  7,  1, 12)  ( 11,  1, 63)  ( 11,  1, 63)
  0 -0.1591E-02  0  0.9710E-03  1  0.8551E-03
   ( 11,  1, 37)  ( 11,  1, 49)  ( 11,  1, 70)

 MAXIMUM RESIDUAL FOR EACH ITERATION (1 INDICATES THE FIRST INNER ITERATION):

    RESIDUAL       RESIDUAL       RESIDUAL       RESIDUAL       RESIDUAL    
   LAYER,ROW,COL  LAYER,ROW,COL  LAYER,ROW,COL  LAYER,ROW,COL  LAYER,ROW,COL
 ---------------------------------------------------------------------------
  1 -0.1298E+06  0  0.9064E+05  0  0.8402E+05  0  0.1993E+05  0   5085.    
   ( 21,  1, 89)  ( 19,  1, 89)  ( 19,  1, 89)  ( 19,  1, 89)  ( 17,  1, 87)
  0  -2853.      0  -2581.      1  -1948.    
   ( 22,  1, 87)  ( 22,  1, 87)  ( 22,  1, 87)


 FLOW MODEL IS TRANSIENT
 FLOW MODEL CONTAINS CONSTANT-HEAD CELLS


 MAXIMUM STEPSIZE DURING WHICH ANY PARTICLE CANNOT MOVE MORE THAN ONE CELL
 =  13.21    (WHEN MIN. R.F.=1)  AT K=  17, I=   1, J=  90

 MAXIMUM STEPSIZE WHICH MEETS STABILITY CRITERION OF THE ADVECTION TERM
 (FOR PURE FINITE-DIFFERENCE OPTION, MIXELM=0) 
 =  8.004    (WHEN MIN. R.F.=1)  AT K=  16, I=   1, J=  90


 TOTAL NUMBER OF POINT SOURCES/SINKS PRESENT IN THE FLOW MODEL =    30

 MAXIMUM STEPSIZE WHICH MEETS STABILITY CRITERION OF THE SINK & SOURCE TERM
 =  12.17    (WHEN MIN. R.F.=1)  AT K=  17, I=   1, J=  91

 MAXIMUM STEPSIZE WHICH MEETS STABILITY CRITERION OF THE DISPERSION TERM
 =  4.347    (WHEN MIN. R.F.=1)  AT K=  17, I=   1, J=  90
     1 CALLS TO GCG PACKAGE FOR TRANSPORT TIME STEP 612 IN FLOW TIME STEP   1 STRESS PERIOD   1
     8 TOTAL ITERATIONS
     1 CALLS TO GCG PACKAGE FOR TRANSPORT TIME STEP 612 IN FLOW TIME STEP   1 STRESS PERIOD   1
     8 TOTAL ITERATIONS
 
 SOLVING FOR HEAD 


     2 CALLS TO PCG ROUTINE FOR TIME STEP   1 IN STRESS PERIOD    1
     8 TOTAL ITERATIONS

 MAXIMUM HEAD CHANGE FOR EACH ITERATION (1 INDICATES THE FIRST INNER ITERATION):

    HEAD CHANGE    HEAD CHANGE    HEAD CHANGE    HEAD CHANGE    HEAD CHANGE 
   LAYER,ROW,COL  LAYER,ROW,COL  LAYER,ROW,COL  LAYER,ROW,COL  LAYER,ROW,COL
 ---------------------------------------------------------------------------
  1  0.1375E-01  0 -0.9126E-02  0 -0.3360E-02  0  0.1234E-01  0  0.6890E-02
   ( 15,  1, 86)  ( 11,  1, 49)  (  7,  1, 12)  ( 11,  1, 49)  (  7,  1, 52)
  0 -0.5892E-02  0  0.9541E-03  1 -0.5431E-03
   ( 11,  1, 63)  ( 11,  1, 62)  ( 11,  1, 49)

 MAXIMUM RESIDUAL FOR EACH ITERATION (1 INDICATES THE FIRST INNER ITERATION):

    RESIDUAL       RESIDUAL       RESIDUAL       RESIDUAL       RESIDUAL    
   LAYER,ROW,COL  LAYER,ROW,COL  LAYER,ROW,COL  LAYER,ROW,COL  LAYER,ROW,COL
 ---------------------------------------------------------------------------
  1  0.1313E+06  0 -0.9258E+05  0 -0.9167E+05  0 -0.7283E+05  0  -6881.    
   ( 21,  1, 89)  ( 19,  1, 89)  ( 19,  1, 89)  ( 19,  1, 89)  ( 17,  1, 87)
  0   3002.      0   2629.      1   1694.    
   ( 17,  1, 88)  ( 22,  1, 87)  ( 22,  1, 87)


 FLOW MODEL IS TRANSIENT
 FLOW MODEL CONTAINS CONSTANT-HEAD CELLS


 MAXIMUM STEPSIZE DURING WHICH ANY PARTICLE CANNOT MOVE MORE THAN ONE CELL
 =  12.91    (WHEN MIN. R.F.=1)  AT K=  17, I=   1, J=  90

 MAXIMUM STEPSIZE WHICH MEETS STABILITY CRITERION OF THE ADVECTION TERM
 (FOR PURE FINITE-DIFFERENCE OPTION, MIXELM=0) 
 =  8.055    (WHEN MIN. R.F.=1)  AT K=  16, I=   1, J=  90


 TOTAL NUMBER OF POINT SOURCES/SINKS PRESENT IN THE FLOW MODEL =    30

 MAXIMUM STEPSIZE WHICH MEETS STABILITY CRITERION OF THE SINK & SOURCE TERM
 =  12.28    (WHEN MIN. R.F.=1)  AT K=  17, I=   1, J=  91

 MAXIMUM STEPSIZE WHICH MEETS STABILITY CRITERION OF THE DISPERSION TERM
 =  4.052    (WHEN MIN. R.F.=1)  AT K=  17, I=   1, J=  90
     1 CALLS TO GCG PACKAGE FOR TRANSPORT TIME STEP 613 IN FLOW TIME STEP   1 STRESS PERIOD   1
     8 TOTAL ITERATIONS
     1 CALLS TO GCG PACKAGE FOR TRANSPORT TIME STEP 613 IN FLOW TIME STEP   1 STRESS PERIOD   1
     8 TOTAL ITERATIONS
 
 SOLVING FOR HEAD 


     2 CALLS TO PCG ROUTINE FOR TIME STEP   1 IN STRESS PERIOD    1
    10 TOTAL ITERATIONS

 MAXIMUM HEAD CHANGE FOR EACH ITERATION (1 INDICATES THE FIRST INNER ITERATION):

    HEAD CHANGE    HEAD CHANGE    HEAD CHANGE    HEAD CHANGE    HEAD CHANGE 
   LAYER,ROW,COL  LAYER,ROW,COL  LAYER,ROW,COL  LAYER,ROW,COL  LAYER,ROW,COL
 ---------------------------------------------------------------------------
  1 -0.1364E-01  0 -0.7793E-02  0  0.4171E-02  0  0.8499E-02  0 -0.6432E-02
   ( 15,  1, 86)  (  8,  1, 38)  (  7,  1, 12)  (  7,  1, 39)  ( 11,  1, 53)
  0  0.3252E-02  0  0.1069E-02  0  0.1098E-02  0  0.7916E-03  1 -0.3936E-03
   ( 11,  1, 65)  ( 11,  1, 49)  ( 11,  1, 70)  ( 11,  1, 53)  ( 11,  1, 70)

 MAXIMUM RESIDUAL FOR EACH ITERATION (1 INDICATES THE FIRST INNER ITERATION):

    RESIDUAL       RESIDUAL       RESIDUAL       RESIDUAL       RESIDUAL    
   LAYER,ROW,COL  LAYER,ROW,COL  LAYER,ROW,COL  LAYER,ROW,COL  LAYER,ROW,COL
 ---------------------------------------------------------------------------
  1 -0.1342E+06  0  0.9509E+05  0  0.9435E+05  0  0.7470E+05  0   5980.    
   ( 21,  1, 89)  ( 19,  1, 89)  ( 19,  1, 89)  ( 19,  1, 89)  ( 17,  1, 87)
  0  -2921.      0  -2633.      0  -1915.      0  -457.0      1  -389.5    
   ( 17,  1, 88)  ( 22,  1, 87)  ( 22,  1, 87)  ( 22,  1, 87)  ( 22,  1, 87)


 FLOW MODEL IS TRANSIENT
 FLOW MODEL CONTAINS CONSTANT-HEAD CELLS


 MAXIMUM STEPSIZE DURING WHICH ANY PARTICLE CANNOT MOVE MORE THAN ONE CELL
 =  13.19    (WHEN MIN. R.F.=1)  AT K=  17, I=   1, J=  90

 MAXIMUM STEPSIZE WHICH MEETS STABILITY CRITERION OF THE ADVECTION TERM
 (FOR PURE FINITE-DIFFERENCE OPTION, MIXELM=0) 
 =  7.992    (WHEN MIN. R.F.=1)  AT K=  16, I=   1, J=  90


 TOTAL NUMBER OF POINT SOURCES/SINKS PRESENT IN THE FLOW MODEL =    30

 MAXIMUM STEPSIZE WHICH MEETS STABILITY CRITERION OF THE SINK & SOURCE TERM
 =  12.17    (WHEN MIN. R.F.=1)  AT K=  17, I=   1, J=  91

 MAXIMUM STEPSIZE WHICH MEETS STABILITY CRITERION OF THE DISPERSION TERM
 =  4.350    (WHEN MIN. R.F.=1)  AT K=  17, I=   1, J=  90
     1 CALLS TO GCG PACKAGE FOR TRANSPORT TIME STEP 614 IN FLOW TIME STEP   1 STRESS PERIOD   1
     9 TOTAL ITERATIONS
     1 CALLS TO GCG PACKAGE FOR TRANSPORT TIME STEP 614 IN FLOW TIME STEP   1 STRESS PERIOD   1
     8 TOTAL ITERATIONS
 
 SOLVING FOR HEAD 


     2 CALLS TO PCG ROUTINE FOR TIME STEP   1 IN STRESS PERIOD    1
     8 TOTAL ITERATIONS

 MAXIMUM HEAD CHANGE FOR EACH ITERATION (1 INDICATES THE FIRST INNER ITERATION):

    HEAD CHANGE    HEAD CHANGE    HEAD CHANGE    HEAD CHANGE    HEAD CHANGE 
   LAYER,ROW,COL  LAYER,ROW,COL  LAYER,ROW,COL  LAYER,ROW,COL  LAYER,ROW,COL
 ---------------------------------------------------------------------------
  1  0.1330E-01  0 -0.3782E-02  0 -0.2920E-02  0  0.5454E-02  0 -0.6863E-02
   ( 15,  1, 86)  ( 17,  1, 89)  (  8,  1, 12)  ( 11,  1, 54)  ( 11,  1, 54)
  0  0.2059E-02  0 -0.8319E-03  1  0.5537E-03
   ( 11,  1, 54)  ( 11,  1, 42)  ( 11,  1, 42)

 MAXIMUM RESIDUAL FOR EACH ITERATION (1 INDICATES THE FIRST INNER ITERATION):

    RESIDUAL       RESIDUAL       RESIDUAL       RESIDUAL       RESIDUAL    
   LAYER,ROW,COL  LAYER,ROW,COL  LAYER,ROW,COL  LAYER,ROW,COL  LAYER,ROW,COL
 ---------------------------------------------------------------------------
  1  0.1344E+06  0 -0.9550E+05  0 -0.9070E+05  0 -0.1795E+05  0  -4686.    
   ( 21,  1, 89)  ( 19,  1, 89)  ( 19,  1, 89)  ( 19,  1, 89)  ( 17,  1, 87)
  0   2763.      0   2425.      1   2038.    
   ( 22,  1, 87)  ( 22,  1, 87)  ( 22,  1, 87)


 FLOW MODEL IS TRANSIENT
 FLOW MODEL CONTAINS CONSTANT-HEAD CELLS


 MAXIMUM STEPSIZE DURING WHICH ANY PARTICLE CANNOT MOVE MORE THAN ONE CELL
 =  12.82    (WHEN MIN. R.F.=1)  AT K=  17, I=   1, J=  90

 MAXIMUM STEPSIZE WHICH MEETS STABILITY CRITERION OF THE ADVECTION TERM
 (FOR PURE FINITE-DIFFERENCE OPTION, MIXELM=0) 
 =  8.021    (WHEN MIN. R.F.=1)  AT K=  16, I=   1, J=  90


 TOTAL NUMBER OF POINT SOURCES/SINKS PRESENT IN THE FLOW MODEL =    30

 MAXIMUM STEPSIZE WHICH MEETS STABILITY CRITERION OF THE SINK & SOURCE TERM
 =  12.19    (WHEN MIN. R.F.=1)  AT K=  17, I=   1, J=  91

 MAXIMUM STEPSIZE WHICH MEETS STABILITY CRITERION OF THE DISPERSION TERM
 =  4.014    (WHEN MIN. R.F.=1)  AT K=  17, I=   1, J=  90
     1 CALLS TO GCG PACKAGE FOR TRANSPORT TIME STEP 615 IN FLOW TIME STEP   1 STRESS PERIOD   1
     8 TOTAL ITERATIONS
  MAXIMUM CONCENTRATION CHANGES FOR EACH ITERATION:
  MAX. CHANGE LAYER,ROW,COL MAX. CHANGE LAYER,ROW,COL MAX. CHANGE LAYER,ROW,COL MAX. CHANGE LAYER,ROW,COL MAX. CHANGE LAYER,ROW,COL
 ------------------------------------------------------------------------------------------------------------------------------------
   0.5234E-01 ( 20,  1, 87)  0.4156E-02 ( 19,  1, 89)  0.2115E-02 ( 17,  1, 86)  0.4547E-03 ( 20,  1, 89)  0.9642E-04 ( 16,  1, 89)
   0.2112E-04 ( 20,  1, 89)  0.1786E-04 ( 16,  1, 90)  0.6273E-06 ( 17,  1, 90)
     1 CALLS TO GCG PACKAGE FOR TRANSPORT TIME STEP 615 IN FLOW TIME STEP   1 STRESS PERIOD   1
     8 TOTAL ITERATIONS
  MAXIMUM CONCENTRATION CHANGES FOR EACH ITERATION:
  MAX. CHANGE LAYER,ROW,COL MAX. CHANGE LAYER,ROW,COL MAX. CHANGE LAYER,ROW,COL MAX. CHANGE LAYER,ROW,COL MAX. CHANGE LAYER,ROW,COL
 ------------------------------------------------------------------------------------------------------------------------------------
   0.5957E-01 ( 20,  1, 87)  0.4807E-02 ( 19,  1, 89)  0.2122E-02 ( 18,  1, 86)  0.3927E-03 ( 20,  1, 89)  0.1106E-03 ( 16,  1, 89)
   0.1947E-04 ( 23,  1, 87)  0.1599E-04 ( 16,  1, 90)  0.8516E-06 ( 17,  1, 90)
 
 SOLVING FOR HEAD 


     2 CALLS TO PCG ROUTINE FOR TIME STEP   1 IN STRESS PERIOD    1
     8 TOTAL ITERATIONS

 MAXIMUM HEAD CHANGE FOR EACH ITERATION (1 INDICATES THE FIRST INNER ITERATION):

    HEAD CHANGE    HEAD CHANGE    HEAD CHANGE    HEAD CHANGE    HEAD CHANGE 
   LAYER,ROW,COL  LAYER,ROW,COL  LAYER,ROW,COL  LAYER,ROW,COL  LAYER,ROW,COL
 ---------------------------------------------------------------------------
  1 -0.1369E-01  0 -0.6917E-02  0  0.4433E-02  0  0.9553E-02  0 -0.7047E-02
   ( 15,  1, 86)  (  7,  1, 48)  (  8,  1, 12)  (  7,  1, 49)  (  8,  1, 50)
  0  0.2381E-02  0  0.9357E-03  1  0.5389E-03
   ( 11,  1, 65)  ( 11,  1, 54)  ( 11,  1, 70)

 MAXIMUM RESIDUAL FOR EACH ITERATION (1 INDICATES THE FIRST INNER ITERATION):

    RESIDUAL       RESIDUAL       RESIDUAL       RESIDUAL       RESIDUAL    
   LAYER,ROW,COL  LAYER,ROW,COL  LAYER,ROW,COL  LAYER,ROW,COL  LAYER,ROW,COL
 ---------------------------------------------------------------------------
  1 -0.1322E+06  0  0.9217E+05  0  0.9154E+05  0  0.7115E+05  0   6334.    
   ( 21,  1, 89)  ( 19,  1, 89)  ( 19,  1, 89)  ( 19,  1, 89)  ( 17,  1, 87)
  0  -2949.      0  -2607.      1  -1438.    
   ( 17,  1, 88)  ( 22,  1, 87)  ( 22,  1, 87)


 FLOW MODEL IS TRANSIENT
 FLOW MODEL CONTAINS CONSTANT-HEAD CELLS


 MAXIMUM STEPSIZE DURING WHICH ANY PARTICLE CANNOT MOVE MORE THAN ONE CELL
 =  13.15    (WHEN MIN. R.F.=1)  AT K=  17, I=   1, J=  90

 MAXIMUM STEPSIZE WHICH MEETS STABILITY CRITERION OF THE ADVECTION TERM
 (FOR PURE FINITE-DIFFERENCE OPTION, MIXELM=0) 
 =  7.976    (WHEN MIN. R.F.=1)  AT K=  16, I=   1, J=  90


 TOTAL NUMBER OF POINT SOURCES/SINKS PRESENT IN THE FLOW MODEL =    30

 MAXIMUM STEPSIZE WHICH MEETS STABILITY CRITERION OF THE SINK & SOURCE TERM
 =  12.09    (WHEN MIN. R.F.=1)  AT K=  17, I=   1, J=  91

 MAXIMUM STEPSIZE WHICH MEETS STABILITY CRITERION OF THE DISPERSION TERM
 =  4.333    (WHEN MIN. R.F.=1)  AT K=  17, I=   1, J=  90
     1 CALLS TO GCG PACKAGE FOR TRANSPORT TIME STEP 616 IN FLOW TIME STEP   1 STRESS PERIOD   1
     8 TOTAL ITERATIONS
     1 CALLS TO GCG PACKAGE FOR TRANSPORT TIME STEP 616 IN FLOW TIME STEP   1 STRESS PERIOD   1
     8 TOTAL ITERATIONS
 
 SOLVING FOR HEAD 


     2 CALLS TO PCG ROUTINE FOR TIME STEP   1 IN STRESS PERIOD    1
    10 TOTAL ITERATIONS

 MAXIMUM HEAD CHANGE FOR EACH ITERATION (1 INDICATES THE FIRST INNER ITERATION):

    HEAD CHANGE    HEAD CHANGE    HEAD CHANGE    HEAD CHANGE    HEAD CHANGE 
   LAYER,ROW,COL  LAYER,ROW,COL  LAYER,ROW,COL  LAYER,ROW,COL  LAYER,ROW,COL
 ---------------------------------------------------------------------------
  1  0.1359E-01  0 -0.1031E-01  0 -0.2720E-02  0  0.1544E-01  0 -0.1027E-01
   ( 15,  1, 86)  ( 11,  1, 56)  (  7,  1, 12)  ( 11,  1, 56)  ( 11,  1, 55)
  0 -0.4612E-02  0 -0.1240E-02  0 -0.1092E-02  0 -0.6706E-03  1  0.4926E-03
   ( 11,  1, 66)  ( 11,  1, 49)  ( 11,  1, 70)  ( 11,  1, 66)  ( 11,  1, 70)

 MAXIMUM RESIDUAL FOR EACH ITERATION (1 INDICATES THE FIRST INNER ITERATION):

    RESIDUAL       RESIDUAL       RESIDUAL       RESIDUAL       RESIDUAL    
   LAYER,ROW,COL  LAYER,ROW,COL  LAYER,ROW,COL  LAYER,ROW,COL  LAYER,ROW,COL
 ---------------------------------------------------------------------------
  1  0.1338E+06  0 -0.9514E+05  0 -0.9383E+05  0 -0.7118E+05  0   6333.    
   ( 21,  1, 89)  ( 19,  1, 89)  ( 19,  1, 89)  ( 19,  1, 89)  ( 17,  1, 88)
  0   3106.      0   2499.      0   1825.      0   466.3      1   402.4    
   ( 17,  1, 88)  ( 22,  1, 87)  ( 22,  1, 87)  ( 22,  1, 87)  ( 22,  1, 87)


 FLOW MODEL IS TRANSIENT
 FLOW MODEL CONTAINS CONSTANT-HEAD CELLS


 MAXIMUM STEPSIZE DURING WHICH ANY PARTICLE CANNOT MOVE MORE THAN ONE CELL
 =  12.87    (WHEN MIN. R.F.=1)  AT K=  17, I=   1, J=  90

 MAXIMUM STEPSIZE WHICH MEETS STABILITY CRITERION OF THE ADVECTION TERM
 (FOR PURE FINITE-DIFFERENCE OPTION, MIXELM=0) 
 =  8.044    (WHEN MIN. R.F.=1)  AT K=  16, I=   1, J=  90


 TOTAL NUMBER OF POINT SOURCES/SINKS PRESENT IN THE FLOW MODEL =    30

 MAXIMUM STEPSIZE WHICH MEETS STABILITY CRITERION OF THE SINK & SOURCE TERM
 =  12.21    (WHEN MIN. R.F.=1)  AT K=  17, I=   1, J=  91

 MAXIMUM STEPSIZE WHICH MEETS STABILITY CRITERION OF THE DISPERSION TERM
 =  4.032    (WHEN MIN. R.F.=1)  AT K=  17, I=   1, J=  90
     1 CALLS TO GCG PACKAGE FOR TRANSPORT TIME STEP 617 IN FLOW TIME STEP   1 STRESS PERIOD   1
     8 TOTAL ITERATIONS
     1 CALLS TO GCG PACKAGE FOR TRANSPORT TIME STEP 617 IN FLOW TIME STEP   1 STRESS PERIOD   1
     8 TOTAL ITERATIONS
 
 SOLVING FOR HEAD 


     2 CALLS TO PCG ROUTINE FOR TIME STEP   1 IN STRESS PERIOD    1
     8 TOTAL ITERATIONS

 MAXIMUM HEAD CHANGE FOR EACH ITERATION (1 INDICATES THE FIRST INNER ITERATION):

    HEAD CHANGE    HEAD CHANGE    HEAD CHANGE    HEAD CHANGE    HEAD CHANGE 
   LAYER,ROW,COL  LAYER,ROW,COL  LAYER,ROW,COL  LAYER,ROW,COL  LAYER,ROW,COL
 ---------------------------------------------------------------------------
  1 -0.1339E-01  0  0.3737E-02  0  0.2591E-02  0  0.5834E-02  0 -0.6963E-02
   ( 15,  1, 86)  ( 17,  1, 89)  (  8,  1, 12)  (  8,  1, 39)  (  7,  1, 39)
  0 -0.1561E-02  0  0.8538E-03  1 -0.5763E-03
   ( 11,  1, 35)  ( 11,  1, 49)  ( 11,  1, 49)

 MAXIMUM RESIDUAL FOR EACH ITERATION (1 INDICATES THE FIRST INNER ITERATION):

    RESIDUAL       RESIDUAL       RESIDUAL       RESIDUAL       RESIDUAL    
   LAYER,ROW,COL  LAYER,ROW,COL  LAYER,ROW,COL  LAYER,ROW,COL  LAYER,ROW,COL
 ---------------------------------------------------------------------------
  1 -0.1303E+06  0  0.9180E+05  0  0.9067E+05  0  0.1923E+05  0   5183.    
   ( 21,  1, 89)  ( 19,  1, 89)  ( 19,  1, 89)  ( 19,  1, 89)  ( 17,  1, 87)
  0  -2798.      0  -2430.      1  -2066.    
   ( 22,  1, 87)  ( 22,  1, 87)  ( 22,  1, 87)


 FLOW MODEL IS TRANSIENT
 FLOW MODEL CONTAINS CONSTANT-HEAD CELLS


 MAXIMUM STEPSIZE DURING WHICH ANY PARTICLE CANNOT MOVE MORE THAN ONE CELL
 =  13.26    (WHEN MIN. R.F.=1)  AT K=  17, I=   1, J=  90

 MAXIMUM STEPSIZE WHICH MEETS STABILITY CRITERION OF THE ADVECTION TERM
 (FOR PURE FINITE-DIFFERENCE OPTION, MIXELM=0) 
 =  8.018    (WHEN MIN. R.F.=1)  AT K=  16, I=   1, J=  90


 TOTAL NUMBER OF POINT SOURCES/SINKS PRESENT IN THE FLOW MODEL =    30

 MAXIMUM STEPSIZE WHICH MEETS STABILITY CRITERION OF THE SINK & SOURCE TERM
 =  12.20    (WHEN MIN. R.F.=1)  AT K=  17, I=   1, J=  91

 MAXIMUM STEPSIZE WHICH MEETS STABILITY CRITERION OF THE DISPERSION TERM
 =  4.382    (WHEN MIN. R.F.=1)  AT K=  17, I=   1, J=  90
     1 CALLS TO GCG PACKAGE FOR TRANSPORT TIME STEP 618 IN FLOW TIME STEP   1 STRESS PERIOD   1
    10 TOTAL ITERATIONS
     1 CALLS TO GCG PACKAGE FOR TRANSPORT TIME STEP 618 IN FLOW TIME STEP   1 STRESS PERIOD   1
     8 TOTAL ITERATIONS
 
 SOLVING FOR HEAD 


     2 CALLS TO PCG ROUTINE FOR TIME STEP   1 IN STRESS PERIOD    1
     8 TOTAL ITERATIONS

 MAXIMUM HEAD CHANGE FOR EACH ITERATION (1 INDICATES THE FIRST INNER ITERATION):

    HEAD CHANGE    HEAD CHANGE    HEAD CHANGE    HEAD CHANGE    HEAD CHANGE 
   LAYER,ROW,COL  LAYER,ROW,COL  LAYER,ROW,COL  LAYER,ROW,COL  LAYER,ROW,COL
 ---------------------------------------------------------------------------
  1  0.1369E-01  0 -0.6432E-02  0 -0.3629E-02  0  0.1038E-01  0  0.6962E-02
   ( 15,  1, 86)  ( 11,  1, 49)  (  8,  1, 12)  ( 11,  1, 49)  (  9,  1, 54)
  0 -0.2194E-02  0  0.9719E-03  1 -0.7122E-03
   (  6,  1, 36)  (  7,  1, 36)  ( 11,  1, 52)

 MAXIMUM RESIDUAL FOR EACH ITERATION (1 INDICATES THE FIRST INNER ITERATION):

    RESIDUAL       RESIDUAL       RESIDUAL       RESIDUAL       RESIDUAL    
   LAYER,ROW,COL  LAYER,ROW,COL  LAYER,ROW,COL  LAYER,ROW,COL  LAYER,ROW,COL
 ---------------------------------------------------------------------------
  1  0.1341E+06  0 -0.9457E+05  0 -0.9371E+05  0 -0.7199E+05  0  -5920.    
   ( 21,  1, 89)  ( 19,  1, 89)  ( 19,  1, 89)  ( 19,  1, 89)  ( 17,  1, 87)
  0   2835.      0   2623.      1   1584.    
   ( 17,  1, 88)  ( 22,  1, 87)  ( 22,  1, 87)


 FLOW MODEL IS TRANSIENT
 FLOW MODEL CONTAINS CONSTANT-HEAD CELLS


 MAXIMUM STEPSIZE DURING WHICH ANY PARTICLE CANNOT MOVE MORE THAN ONE CELL
 =  12.92    (WHEN MIN. R.F.=1)  AT K=  17, I=   1, J=  90

 MAXIMUM STEPSIZE WHICH MEETS STABILITY CRITERION OF THE ADVECTION TERM
 (FOR PURE FINITE-DIFFERENCE OPTION, MIXELM=0) 
 =  8.064    (WHEN MIN. R.F.=1)  AT K=  16, I=   1, J=  90


 TOTAL NUMBER OF POINT SOURCES/SINKS PRESENT IN THE FLOW MODEL =    30

 MAXIMUM STEPSIZE WHICH MEETS STABILITY CRITERION OF THE SINK & SOURCE TERM
 =  12.30    (WHEN MIN. R.F.=1)  AT K=  17, I=   1, J=  91

 MAXIMUM STEPSIZE WHICH MEETS STABILITY CRITERION OF THE DISPERSION TERM
 =  4.056    (WHEN MIN. R.F.=1)  AT K=  17, I=   1, J=  90
     1 CALLS TO GCG PACKAGE FOR TRANSPORT TIME STEP 619 IN FLOW TIME STEP   1 STRESS PERIOD   1
     8 TOTAL ITERATIONS
     1 CALLS TO GCG PACKAGE FOR TRANSPORT TIME STEP 619 IN FLOW TIME STEP   1 STRESS PERIOD   1
     8 TOTAL ITERATIONS
 
 SOLVING FOR HEAD 


     2 CALLS TO PCG ROUTINE FOR TIME STEP   1 IN STRESS PERIOD    1
    11 TOTAL ITERATIONS

 MAXIMUM HEAD CHANGE FOR EACH ITERATION (1 INDICATES THE FIRST INNER ITERATION):

    HEAD CHANGE    HEAD CHANGE    HEAD CHANGE    HEAD CHANGE    HEAD CHANGE 
   LAYER,ROW,COL  LAYER,ROW,COL  LAYER,ROW,COL  LAYER,ROW,COL  LAYER,ROW,COL
 ---------------------------------------------------------------------------
  1 -0.1368E-01  0 -0.9431E-02  0  0.5125E-02  0  0.1171E-01  0 -0.6634E-02
   ( 15,  1, 86)  ( 11,  1, 52)  (  8,  1, 12)  ( 11,  1, 52)  ( 11,  1, 54)
  0  0.4311E-02  0  0.1425E-02  0  0.1657E-02  0 -0.1116E-02  0 -0.2980E-03
   ( 11,  1, 66)  ( 11,  1, 51)  ( 11,  1, 70)  ( 11,  1, 70)  ( 11,  1, 62)
  1 -0.2033E-03
   ( 11,  1, 67)

 MAXIMUM RESIDUAL FOR EACH ITERATION (1 INDICATES THE FIRST INNER ITERATION):

    RESIDUAL       RESIDUAL       RESIDUAL       RESIDUAL       RESIDUAL    
   LAYER,ROW,COL  LAYER,ROW,COL  LAYER,ROW,COL  LAYER,ROW,COL  LAYER,ROW,COL
 ---------------------------------------------------------------------------
  1 -0.1385E+06  0  0.9849E+05  0  0.9790E+05  0  0.7866E+05  0  -6126.    
   ( 21,  1, 89)  ( 19,  1, 89)  ( 19,  1, 89)  ( 19,  1, 89)  ( 17,  1, 88)
  0  -3042.      0  -2584.      0  -1694.      0  -415.4      0   276.6    
   ( 17,  1, 88)  ( 22,  1, 87)  ( 22,  1, 87)  ( 22,  1, 87)  ( 19,  1, 90)
  1   245.2    
   ( 19,  1, 90)


 FLOW MODEL IS TRANSIENT
 FLOW MODEL CONTAINS CONSTANT-HEAD CELLS


 MAXIMUM STEPSIZE DURING WHICH ANY PARTICLE CANNOT MOVE MORE THAN ONE CELL
 =  13.21    (WHEN MIN. R.F.=1)  AT K=  17, I=   1, J=  90

 MAXIMUM STEPSIZE WHICH MEETS STABILITY CRITERION OF THE ADVECTION TERM
 (FOR PURE FINITE-DIFFERENCE OPTION, MIXELM=0) 
 =  7.998    (WHEN MIN. R.F.=1)  AT K=  16, I=   1, J=  90


 TOTAL NUMBER OF POINT SOURCES/SINKS PRESENT IN THE FLOW MODEL =    30

 MAXIMUM STEPSIZE WHICH MEETS STABILITY CRITERION OF THE SINK & SOURCE TERM
 =  12.18    (WHEN MIN. R.F.=1)  AT K=  17, I=   1, J=  91

 MAXIMUM STEPSIZE WHICH MEETS STABILITY CRITERION OF THE DISPERSION TERM
 =  4.367    (WHEN MIN. R.F.=1)  AT K=  17, I=   1, J=  90
     1 CALLS TO GCG PACKAGE FOR TRANSPORT TIME STEP 620 IN FLOW TIME STEP   1 STRESS PERIOD   1
     9 TOTAL ITERATIONS
  MAXIMUM CONCENTRATION CHANGES FOR EACH ITERATION:
  MAX. CHANGE LAYER,ROW,COL MAX. CHANGE LAYER,ROW,COL MAX. CHANGE LAYER,ROW,COL MAX. CHANGE LAYER,ROW,COL MAX. CHANGE LAYER,ROW,COL
 ------------------------------------------------------------------------------------------------------------------------------------
   0.4902E-01 ( 20,  1, 87)  0.3275E-02 ( 19,  1, 87)  0.2187E-02 ( 18,  1, 87)  0.2151E-03 ( 16,  1, 88)  0.1373E-03 ( 17,  1, 89)
   0.3027E-04 ( 16,  1, 90)  0.1160E-05 ( 21,  1, 78)  0.6165E-05 ( 21,  1, 78)  0.5708E-06 ( 17,  1, 89)
     1 CALLS TO GCG PACKAGE FOR TRANSPORT TIME STEP 620 IN FLOW TIME STEP   1 STRESS PERIOD   1
     8 TOTAL ITERATIONS
  MAXIMUM CONCENTRATION CHANGES FOR EACH ITERATION:
  MAX. CHANGE LAYER,ROW,COL MAX. CHANGE LAYER,ROW,COL MAX. CHANGE LAYER,ROW,COL MAX. CHANGE LAYER,ROW,COL MAX. CHANGE LAYER,ROW,COL
 ------------------------------------------------------------------------------------------------------------------------------------
   0.5472E-01 ( 20,  1, 87)  0.3753E-02 ( 19,  1, 87)  0.2272E-02 ( 18,  1, 87)  0.2258E-03 ( 23,  1, 88)  0.1381E-03 ( 17,  1, 89)
   0.3510E-04 ( 16,  1, 90)  0.5122E-05 ( 17,  1, 90)  0.5779E-06 ( 16,  1, 89)



 >>>>>>>>>>>>>>>>>>>>>>>>>>>>>>>>>>>>>>>>>>>>>>>>>>>>>>>FOR COMPONENT NO. 01<<<<<<<<<<<<<<<<<<<<<<<<<<<<<<<<<<<<<<<<<<<<<<<<<<<<<<<


                                            -------------------------------------------
                                                      TRANSPORT STEP NO.  620
                                            -------------------------------------------

 TOTAL ELAPSED TIME SINCE BEGINNING OF SIMULATION =   31000.00    D   
 .....................................................................

                     CUMMULATIVE MASS BUDGETS AT END OF TRANSPORT STEP  620, TIME STEP    1, STRESS PERIOD    1
                     ------------------------------------------------------------------------------------------

                                                             IN                           OUT
                                                      ----------------             ----------------
                               CONSTANT CONCENTRATION:    0.000000                    0.000000    
                                        CONSTANT HEAD:   0.1226679E+10              -0.1226469E+10
                                                WELLS:    0.000000                    0.000000    
                                             RECHARGE:    0.000000                    0.000000    
                               1ST/0TH ORDER REACTION:    0.000000                    0.000000    
                                MASS STORAGE (SOLUTE):   0.1714867E+09              -0.1716971E+09
                            ---------------------------------------------------------------------------
                                              [TOTAL]:   0.1398167E+10 KG           -0.1398167E+10 KG  

                                                          NET (IN - OUT):   -216.5831    
                                                   DISCREPANCY (PERCENT):  -0.1549050E-04



 >>>>>>>>>>>>>>>>>>>>>>>>>>>>>>>>>>>>>>>>>>>>>>>>>>>>>>>FOR COMPONENT NO. 02<<<<<<<<<<<<<<<<<<<<<<<<<<<<<<<<<<<<<<<<<<<<<<<<<<<<<<<


                                            -------------------------------------------
                                                      TRANSPORT STEP NO.  620
                                            -------------------------------------------

 TOTAL ELAPSED TIME SINCE BEGINNING OF SIMULATION =   31000.00    D   
 .....................................................................

                     CUMMULATIVE MASS BUDGETS AT END OF TRANSPORT STEP  620, TIME STEP    1, STRESS PERIOD    1
                     ------------------------------------------------------------------------------------------

                                                             IN                           OUT
                                                      ----------------             ----------------
                               CONSTANT CONCENTRATION:    0.000000                    0.000000    
                                        CONSTANT HEAD:    0.000000                  -0.2149433E+12
                                                WELLS:    0.000000                    0.000000    
                                             RECHARGE:    0.000000                    0.000000    
                               1ST/0TH ORDER REACTION:   0.5130500E+12                0.000000    
                                MASS STORAGE (SOLUTE):   0.7383829E+11              -0.3719451E+12
                            ---------------------------------------------------------------------------
                                              [TOTAL]:   0.5868893E+12 KG           -0.5868894E+12 KG  

                                                          NET (IN - OUT):   -74292.00    
                                                   DISCREPANCY (PERCENT):  -0.1265860E-04
 
 SOLVING FOR HEAD 


     2 CALLS TO PCG ROUTINE FOR TIME STEP   1 IN STRESS PERIOD    1
     9 TOTAL ITERATIONS

 MAXIMUM HEAD CHANGE FOR EACH ITERATION (1 INDICATES THE FIRST INNER ITERATION):

    HEAD CHANGE    HEAD CHANGE    HEAD CHANGE    HEAD CHANGE    HEAD CHANGE 
   LAYER,ROW,COL  LAYER,ROW,COL  LAYER,ROW,COL  LAYER,ROW,COL  LAYER,ROW,COL
 ---------------------------------------------------------------------------
  1  0.1326E-01  0 -0.3778E-02  0 -0.5214E-02  0  0.4117E-02  0  0.7391E-02
   ( 15,  1, 86)  ( 17,  1, 89)  ( 11,  1, 60)  (  8,  1, 12)  ( 11,  1, 60)
  0 -0.2608E-02  0 -0.1295E-02  0 -0.6248E-03  1  0.7718E-03
   ( 11,  1, 59)  ( 11,  1, 70)  ( 11,  1, 49)  ( 11,  1, 70)

 MAXIMUM RESIDUAL FOR EACH ITERATION (1 INDICATES THE FIRST INNER ITERATION):

    RESIDUAL       RESIDUAL       RESIDUAL       RESIDUAL       RESIDUAL    
   LAYER,ROW,COL  LAYER,ROW,COL  LAYER,ROW,COL  LAYER,ROW,COL  LAYER,ROW,COL
 ---------------------------------------------------------------------------
  1  0.1363E+06  0 -0.9665E+05  0 -0.2727E+05  0 -0.1348E+05  0   3823.    
   ( 21,  1, 89)  ( 19,  1, 89)  ( 19,  1, 89)  ( 19,  1, 89)  ( 17,  1, 88)
  0   2783.      0   1946.      0   782.1      1   654.4    
   ( 22,  1, 87)  ( 22,  1, 87)  ( 22,  1, 87)  ( 22,  1, 87)


 FLOW MODEL IS TRANSIENT
 FLOW MODEL CONTAINS CONSTANT-HEAD CELLS


 MAXIMUM STEPSIZE DURING WHICH ANY PARTICLE CANNOT MOVE MORE THAN ONE CELL
 =  12.84    (WHEN MIN. R.F.=1)  AT K=  17, I=   1, J=  90

 MAXIMUM STEPSIZE WHICH MEETS STABILITY CRITERION OF THE ADVECTION TERM
 (FOR PURE FINITE-DIFFERENCE OPTION, MIXELM=0) 
 =  8.030    (WHEN MIN. R.F.=1)  AT K=  16, I=   1, J=  90


 TOTAL NUMBER OF POINT SOURCES/SINKS PRESENT IN THE FLOW MODEL =    30

 MAXIMUM STEPSIZE WHICH MEETS STABILITY CRITERION OF THE SINK & SOURCE TERM
 =  12.20    (WHEN MIN. R.F.=1)  AT K=  17, I=   1, J=  91

 MAXIMUM STEPSIZE WHICH MEETS STABILITY CRITERION OF THE DISPERSION TERM
 =  4.020    (WHEN MIN. R.F.=1)  AT K=  17, I=   1, J=  90
     1 CALLS TO GCG PACKAGE FOR TRANSPORT TIME STEP 621 IN FLOW TIME STEP   1 STRESS PERIOD   1
     8 TOTAL ITERATIONS
     1 CALLS TO GCG PACKAGE FOR TRANSPORT TIME STEP 621 IN FLOW TIME STEP   1 STRESS PERIOD   1
     8 TOTAL ITERATIONS
 
 SOLVING FOR HEAD 


     2 CALLS TO PCG ROUTINE FOR TIME STEP   1 IN STRESS PERIOD    1
     9 TOTAL ITERATIONS

 MAXIMUM HEAD CHANGE FOR EACH ITERATION (1 INDICATES THE FIRST INNER ITERATION):

    HEAD CHANGE    HEAD CHANGE    HEAD CHANGE    HEAD CHANGE    HEAD CHANGE 
   LAYER,ROW,COL  LAYER,ROW,COL  LAYER,ROW,COL  LAYER,ROW,COL  LAYER,ROW,COL
 ---------------------------------------------------------------------------
  1 -0.1334E-01  0  0.3628E-02  0  0.3201E-02  0  0.9323E-02  0 -0.8968E-02
   ( 15,  1, 86)  ( 17,  1, 89)  (  8,  1, 12)  (  8,  1, 52)  (  9,  1, 52)
  0 -0.1352E-02  0  0.1304E-02  0  0.8144E-03  1 -0.6911E-03
   ( 11,  1, 57)  ( 11,  1, 58)  ( 11,  1, 70)  ( 11,  1, 70)

 MAXIMUM RESIDUAL FOR EACH ITERATION (1 INDICATES THE FIRST INNER ITERATION):

    RESIDUAL       RESIDUAL       RESIDUAL       RESIDUAL       RESIDUAL    
   LAYER,ROW,COL  LAYER,ROW,COL  LAYER,ROW,COL  LAYER,ROW,COL  LAYER,ROW,COL
 ---------------------------------------------------------------------------
  1 -0.1315E+06  0  0.9162E+05  0  0.9073E+05  0  0.3956E+05  0   6162.    
   ( 21,  1, 89)  ( 19,  1, 89)  ( 19,  1, 89)  ( 19,  1, 89)  ( 17,  1, 87)
  0  -2840.      0  -2498.      0  -779.6      1  -640.7    
   ( 22,  1, 87)  ( 22,  1, 87)  ( 22,  1, 87)  ( 22,  1, 87)


 FLOW MODEL IS TRANSIENT
 FLOW MODEL CONTAINS CONSTANT-HEAD CELLS


 MAXIMUM STEPSIZE DURING WHICH ANY PARTICLE CANNOT MOVE MORE THAN ONE CELL
 =  13.21    (WHEN MIN. R.F.=1)  AT K=  17, I=   1, J=  90

 MAXIMUM STEPSIZE WHICH MEETS STABILITY CRITERION OF THE ADVECTION TERM
 (FOR PURE FINITE-DIFFERENCE OPTION, MIXELM=0) 
 =  8.002    (WHEN MIN. R.F.=1)  AT K=  16, I=   1, J=  90


 TOTAL NUMBER OF POINT SOURCES/SINKS PRESENT IN THE FLOW MODEL =    30

 MAXIMUM STEPSIZE WHICH MEETS STABILITY CRITERION OF THE SINK & SOURCE TERM
 =  12.18    (WHEN MIN. R.F.=1)  AT K=  17, I=   1, J=  91

 MAXIMUM STEPSIZE WHICH MEETS STABILITY CRITERION OF THE DISPERSION TERM
 =  4.358    (WHEN MIN. R.F.=1)  AT K=  17, I=   1, J=  90
     1 CALLS TO GCG PACKAGE FOR TRANSPORT TIME STEP 622 IN FLOW TIME STEP   1 STRESS PERIOD   1
     7 TOTAL ITERATIONS
     1 CALLS TO GCG PACKAGE FOR TRANSPORT TIME STEP 622 IN FLOW TIME STEP   1 STRESS PERIOD   1
     8 TOTAL ITERATIONS
 
 SOLVING FOR HEAD 


     2 CALLS TO PCG ROUTINE FOR TIME STEP   1 IN STRESS PERIOD    1
     9 TOTAL ITERATIONS

 MAXIMUM HEAD CHANGE FOR EACH ITERATION (1 INDICATES THE FIRST INNER ITERATION):

    HEAD CHANGE    HEAD CHANGE    HEAD CHANGE    HEAD CHANGE    HEAD CHANGE 
   LAYER,ROW,COL  LAYER,ROW,COL  LAYER,ROW,COL  LAYER,ROW,COL  LAYER,ROW,COL
 ---------------------------------------------------------------------------
  1  0.1347E-01  0 -0.3678E-02  0 -0.2712E-02  0 -0.7242E-02  0  0.8654E-02
   ( 15,  1, 86)  ( 17,  1, 89)  (  8,  1, 12)  ( 11,  1, 61)  ( 11,  1, 60)
  0 -0.2556E-02  0 -0.1125E-02  0 -0.6563E-03  1  0.5077E-03
   ( 11,  1, 57)  ( 11,  1, 62)  ( 11,  1, 49)  ( 11,  1, 70)

 MAXIMUM RESIDUAL FOR EACH ITERATION (1 INDICATES THE FIRST INNER ITERATION):

    RESIDUAL       RESIDUAL       RESIDUAL       RESIDUAL       RESIDUAL    
   LAYER,ROW,COL  LAYER,ROW,COL  LAYER,ROW,COL  LAYER,ROW,COL  LAYER,ROW,COL
 ---------------------------------------------------------------------------
  1  0.1299E+06  0 -0.9063E+05  0 -0.8684E+05  0 -0.1623E+05  0  -4539.    
   ( 21,  1, 89)  ( 19,  1, 89)  ( 19,  1, 89)  ( 19,  1, 89)  ( 17,  1, 87)
  0   2879.      0   2425.      0   906.0      1   804.3    
   ( 22,  1, 87)  ( 22,  1, 87)  ( 22,  1, 87)  ( 22,  1, 87)


 FLOW MODEL IS TRANSIENT
 FLOW MODEL CONTAINS CONSTANT-HEAD CELLS


 MAXIMUM STEPSIZE DURING WHICH ANY PARTICLE CANNOT MOVE MORE THAN ONE CELL
 =  12.86    (WHEN MIN. R.F.=1)  AT K=  17, I=   1, J=  90

 MAXIMUM STEPSIZE WHICH MEETS STABILITY CRITERION OF THE ADVECTION TERM
 (FOR PURE FINITE-DIFFERENCE OPTION, MIXELM=0) 
 =  8.034    (WHEN MIN. R.F.=1)  AT K=  16, I=   1, J=  90


 TOTAL NUMBER OF POINT SOURCES/SINKS PRESENT IN THE FLOW MODEL =    30

 MAXIMUM STEPSIZE WHICH MEETS STABILITY CRITERION OF THE SINK & SOURCE TERM
 =  12.21    (WHEN MIN. R.F.=1)  AT K=  17, I=   1, J=  91

 MAXIMUM STEPSIZE WHICH MEETS STABILITY CRITERION OF THE DISPERSION TERM
 =  4.032    (WHEN MIN. R.F.=1)  AT K=  17, I=   1, J=  90
     1 CALLS TO GCG PACKAGE FOR TRANSPORT TIME STEP 623 IN FLOW TIME STEP   1 STRESS PERIOD   1
     8 TOTAL ITERATIONS
     1 CALLS TO GCG PACKAGE FOR TRANSPORT TIME STEP 623 IN FLOW TIME STEP   1 STRESS PERIOD   1
     8 TOTAL ITERATIONS
 
 SOLVING FOR HEAD 


     2 CALLS TO PCG ROUTINE FOR TIME STEP   1 IN STRESS PERIOD    1
     9 TOTAL ITERATIONS

 MAXIMUM HEAD CHANGE FOR EACH ITERATION (1 INDICATES THE FIRST INNER ITERATION):

    HEAD CHANGE    HEAD CHANGE    HEAD CHANGE    HEAD CHANGE    HEAD CHANGE 
   LAYER,ROW,COL  LAYER,ROW,COL  LAYER,ROW,COL  LAYER,ROW,COL  LAYER,ROW,COL
 ---------------------------------------------------------------------------
  1 -0.1341E-01  0  0.3631E-02  0  0.2383E-02  0  0.8469E-02  0 -0.8660E-02
   ( 15,  1, 86)  ( 17,  1, 89)  (  8,  1, 12)  (  9,  1, 52)  (  9,  1, 52)
  0 -0.1222E-02  0  0.1027E-02  0  0.9263E-03  1 -0.9454E-03
   ( 11,  1, 35)  ( 11,  1, 59)  ( 11,  1, 70)  ( 11,  1, 70)

 MAXIMUM RESIDUAL FOR EACH ITERATION (1 INDICATES THE FIRST INNER ITERATION):

    RESIDUAL       RESIDUAL       RESIDUAL       RESIDUAL       RESIDUAL    
   LAYER,ROW,COL  LAYER,ROW,COL  LAYER,ROW,COL  LAYER,ROW,COL  LAYER,ROW,COL
 ---------------------------------------------------------------------------
  1 -0.1323E+06  0  0.9336E+05  0  0.9194E+05  0  0.3243E+05  0   5966.    
   ( 21,  1, 89)  ( 19,  1, 89)  ( 19,  1, 89)  ( 19,  1, 89)  ( 17,  1, 87)
  0  -2850.      0  -2402.      0  -843.1      1  -685.5    
   ( 22,  1, 87)  ( 22,  1, 87)  ( 22,  1, 87)  ( 22,  1, 87)


 FLOW MODEL IS TRANSIENT
 FLOW MODEL CONTAINS CONSTANT-HEAD CELLS


 MAXIMUM STEPSIZE DURING WHICH ANY PARTICLE CANNOT MOVE MORE THAN ONE CELL
 =  13.20    (WHEN MIN. R.F.=1)  AT K=  17, I=   1, J=  90

 MAXIMUM STEPSIZE WHICH MEETS STABILITY CRITERION OF THE ADVECTION TERM
 (FOR PURE FINITE-DIFFERENCE OPTION, MIXELM=0) 
 =  7.999    (WHEN MIN. R.F.=1)  AT K=  16, I=   1, J=  90


 TOTAL NUMBER OF POINT SOURCES/SINKS PRESENT IN THE FLOW MODEL =    30

 MAXIMUM STEPSIZE WHICH MEETS STABILITY CRITERION OF THE SINK & SOURCE TERM
 =  12.17    (WHEN MIN. R.F.=1)  AT K=  17, I=   1, J=  91

 MAXIMUM STEPSIZE WHICH MEETS STABILITY CRITERION OF THE DISPERSION TERM
 =  4.350    (WHEN MIN. R.F.=1)  AT K=  17, I=   1, J=  90
     1 CALLS TO GCG PACKAGE FOR TRANSPORT TIME STEP 624 IN FLOW TIME STEP   1 STRESS PERIOD   1
     9 TOTAL ITERATIONS
     1 CALLS TO GCG PACKAGE FOR TRANSPORT TIME STEP 624 IN FLOW TIME STEP   1 STRESS PERIOD   1
     8 TOTAL ITERATIONS
 
 SOLVING FOR HEAD 


     2 CALLS TO PCG ROUTINE FOR TIME STEP   1 IN STRESS PERIOD    1
     8 TOTAL ITERATIONS

 MAXIMUM HEAD CHANGE FOR EACH ITERATION (1 INDICATES THE FIRST INNER ITERATION):

    HEAD CHANGE    HEAD CHANGE    HEAD CHANGE    HEAD CHANGE    HEAD CHANGE 
   LAYER,ROW,COL  LAYER,ROW,COL  LAYER,ROW,COL  LAYER,ROW,COL  LAYER,ROW,COL
 ---------------------------------------------------------------------------
  1  0.1354E-01  0 -0.3651E-02  0 -0.2317E-02  0 -0.8237E-02  0  0.9906E-02
   ( 15,  1, 86)  ( 17,  1, 89)  (  8,  1, 12)  ( 11,  1, 59)  ( 11,  1, 59)
  0 -0.1935E-02  0 -0.9854E-03  1  0.5099E-03
   ( 11,  1, 58)  ( 11,  1, 70)  ( 11,  1, 70)

 MAXIMUM RESIDUAL FOR EACH ITERATION (1 INDICATES THE FIRST INNER ITERATION):

    RESIDUAL       RESIDUAL       RESIDUAL       RESIDUAL       RESIDUAL    
   LAYER,ROW,COL  LAYER,ROW,COL  LAYER,ROW,COL  LAYER,ROW,COL  LAYER,ROW,COL
 ---------------------------------------------------------------------------
  1  0.1309E+06  0 -0.9146E+05  0 -0.8956E+05  0 -0.1756E+05  0  -4648.    
   ( 21,  1, 89)  ( 19,  1, 89)  ( 19,  1, 89)  ( 19,  1, 89)  ( 17,  1, 87)
  0   2880.      0   2240.      1   1998.    
   ( 22,  1, 87)  ( 22,  1, 87)  ( 22,  1, 87)


 FLOW MODEL IS TRANSIENT
 FLOW MODEL CONTAINS CONSTANT-HEAD CELLS


 MAXIMUM STEPSIZE DURING WHICH ANY PARTICLE CANNOT MOVE MORE THAN ONE CELL
 =  12.85    (WHEN MIN. R.F.=1)  AT K=  17, I=   1, J=  90

 MAXIMUM STEPSIZE WHICH MEETS STABILITY CRITERION OF THE ADVECTION TERM
 (FOR PURE FINITE-DIFFERENCE OPTION, MIXELM=0) 
 =  8.028    (WHEN MIN. R.F.=1)  AT K=  16, I=   1, J=  90


 TOTAL NUMBER OF POINT SOURCES/SINKS PRESENT IN THE FLOW MODEL =    30

 MAXIMUM STEPSIZE WHICH MEETS STABILITY CRITERION OF THE SINK & SOURCE TERM
 =  12.20    (WHEN MIN. R.F.=1)  AT K=  17, I=   1, J=  91

 MAXIMUM STEPSIZE WHICH MEETS STABILITY CRITERION OF THE DISPERSION TERM
 =  4.028    (WHEN MIN. R.F.=1)  AT K=  17, I=   1, J=  90
     1 CALLS TO GCG PACKAGE FOR TRANSPORT TIME STEP 625 IN FLOW TIME STEP   1 STRESS PERIOD   1
     8 TOTAL ITERATIONS
  MAXIMUM CONCENTRATION CHANGES FOR EACH ITERATION:
  MAX. CHANGE LAYER,ROW,COL MAX. CHANGE LAYER,ROW,COL MAX. CHANGE LAYER,ROW,COL MAX. CHANGE LAYER,ROW,COL MAX. CHANGE LAYER,ROW,COL
 ------------------------------------------------------------------------------------------------------------------------------------
   0.5213E-01 ( 20,  1, 87)  0.4143E-02 ( 19,  1, 89)  0.2114E-02 ( 18,  1, 86)  0.4711E-03 ( 20,  1, 89)  0.9552E-04 ( 16,  1, 89)
   0.2012E-04 ( 20,  1, 89)  0.1713E-04 ( 16,  1, 90)  0.6571E-06 ( 17,  1, 90)
     1 CALLS TO GCG PACKAGE FOR TRANSPORT TIME STEP 625 IN FLOW TIME STEP   1 STRESS PERIOD   1
     8 TOTAL ITERATIONS
  MAXIMUM CONCENTRATION CHANGES FOR EACH ITERATION:
  MAX. CHANGE LAYER,ROW,COL MAX. CHANGE LAYER,ROW,COL MAX. CHANGE LAYER,ROW,COL MAX. CHANGE LAYER,ROW,COL MAX. CHANGE LAYER,ROW,COL
 ------------------------------------------------------------------------------------------------------------------------------------
   0.5913E-01 ( 20,  1, 87)  0.4760E-02 ( 19,  1, 89)  0.2138E-02 ( 18,  1, 86)  0.4110E-03 ( 20,  1, 89)  0.1066E-03 ( 16,  1, 89)
   0.1822E-04 ( 23,  1, 87)  0.1516E-04 ( 16,  1, 90)  0.8569E-06 ( 17,  1, 90)
 
 SOLVING FOR HEAD 


     2 CALLS TO PCG ROUTINE FOR TIME STEP   1 IN STRESS PERIOD    1
     8 TOTAL ITERATIONS

 MAXIMUM HEAD CHANGE FOR EACH ITERATION (1 INDICATES THE FIRST INNER ITERATION):

    HEAD CHANGE    HEAD CHANGE    HEAD CHANGE    HEAD CHANGE    HEAD CHANGE 
   LAYER,ROW,COL  LAYER,ROW,COL  LAYER,ROW,COL  LAYER,ROW,COL  LAYER,ROW,COL
 ---------------------------------------------------------------------------
  1 -0.1366E-01  0  0.3941E-02  0  0.3891E-02  0 -0.9866E-02  0  0.8786E-02
   ( 15,  1, 86)  ( 17,  1, 89)  (  8,  1, 12)  (  9,  1, 53)  (  7,  1, 52)
  0 -0.1073E-02  0  0.9085E-03  1 -0.6298E-03
   (  8,  1, 42)  ( 11,  1, 49)  ( 11,  1, 49)

 MAXIMUM RESIDUAL FOR EACH ITERATION (1 INDICATES THE FIRST INNER ITERATION):

    RESIDUAL       RESIDUAL       RESIDUAL       RESIDUAL       RESIDUAL    
   LAYER,ROW,COL  LAYER,ROW,COL  LAYER,ROW,COL  LAYER,ROW,COL  LAYER,ROW,COL
 ---------------------------------------------------------------------------
  1 -0.1332E+06  0  0.9438E+05  0  0.9359E+05  0  0.5389E+05  0   5799.    
   ( 21,  1, 89)  ( 19,  1, 89)  ( 19,  1, 89)  ( 19,  1, 89)  ( 17,  1, 87)
  0  -2851.      0  -2502.      1  -2073.    
   ( 22,  1, 87)  ( 22,  1, 87)  ( 22,  1, 87)


 FLOW MODEL IS TRANSIENT
 FLOW MODEL CONTAINS CONSTANT-HEAD CELLS


 MAXIMUM STEPSIZE DURING WHICH ANY PARTICLE CANNOT MOVE MORE THAN ONE CELL
 =  13.16    (WHEN MIN. R.F.=1)  AT K=  17, I=   1, J=  90

 MAXIMUM STEPSIZE WHICH MEETS STABILITY CRITERION OF THE ADVECTION TERM
 (FOR PURE FINITE-DIFFERENCE OPTION, MIXELM=0) 
 =  7.981    (WHEN MIN. R.F.=1)  AT K=  16, I=   1, J=  90


 TOTAL NUMBER OF POINT SOURCES/SINKS PRESENT IN THE FLOW MODEL =    30

 MAXIMUM STEPSIZE WHICH MEETS STABILITY CRITERION OF THE SINK & SOURCE TERM
 =  12.10    (WHEN MIN. R.F.=1)  AT K=  17, I=   1, J=  91

 MAXIMUM STEPSIZE WHICH MEETS STABILITY CRITERION OF THE DISPERSION TERM
 =  4.336    (WHEN MIN. R.F.=1)  AT K=  17, I=   1, J=  90
     1 CALLS TO GCG PACKAGE FOR TRANSPORT TIME STEP 626 IN FLOW TIME STEP   1 STRESS PERIOD   1
    10 TOTAL ITERATIONS
     1 CALLS TO GCG PACKAGE FOR TRANSPORT TIME STEP 626 IN FLOW TIME STEP   1 STRESS PERIOD   1
     8 TOTAL ITERATIONS
 
 SOLVING FOR HEAD 


     2 CALLS TO PCG ROUTINE FOR TIME STEP   1 IN STRESS PERIOD    1
     9 TOTAL ITERATIONS

 MAXIMUM HEAD CHANGE FOR EACH ITERATION (1 INDICATES THE FIRST INNER ITERATION):

    HEAD CHANGE    HEAD CHANGE    HEAD CHANGE    HEAD CHANGE    HEAD CHANGE 
   LAYER,ROW,COL  LAYER,ROW,COL  LAYER,ROW,COL  LAYER,ROW,COL  LAYER,ROW,COL
 ---------------------------------------------------------------------------
  1  0.1391E-01  0 -0.7038E-02  0 -0.4870E-02  0  0.1526E-01  0 -0.1195E-01
   ( 15,  1, 86)  ( 11,  1, 50)  (  8,  1, 12)  ( 11,  1, 50)  ( 11,  1, 50)
  0 -0.2004E-02  0 -0.1069E-02  0 -0.6541E-03  1  0.5093E-03
   ( 11,  1, 69)  ( 11,  1, 59)  ( 11,  1, 52)  ( 11,  1, 52)

 MAXIMUM RESIDUAL FOR EACH ITERATION (1 INDICATES THE FIRST INNER ITERATION):

    RESIDUAL       RESIDUAL       RESIDUAL       RESIDUAL       RESIDUAL    
   LAYER,ROW,COL  LAYER,ROW,COL  LAYER,ROW,COL  LAYER,ROW,COL  LAYER,ROW,COL
 ---------------------------------------------------------------------------
  1  0.1340E+06  0 -0.9578E+05  0 -0.9518E+05  0 -0.6346E+05  0   5559.    
   ( 21,  1, 89)  ( 19,  1, 89)  ( 19,  1, 89)  ( 19,  1, 89)  ( 17,  1, 88)
  0   2732.      0   2530.      0   1013.      1   908.4    
   ( 22,  1, 87)  ( 22,  1, 87)  ( 22,  1, 87)  ( 22,  1, 87)


 FLOW MODEL IS TRANSIENT
 FLOW MODEL CONTAINS CONSTANT-HEAD CELLS


 MAXIMUM STEPSIZE DURING WHICH ANY PARTICLE CANNOT MOVE MORE THAN ONE CELL
 =  12.87    (WHEN MIN. R.F.=1)  AT K=  17, I=   1, J=  90

 MAXIMUM STEPSIZE WHICH MEETS STABILITY CRITERION OF THE ADVECTION TERM
 (FOR PURE FINITE-DIFFERENCE OPTION, MIXELM=0) 
 =  8.046    (WHEN MIN. R.F.=1)  AT K=  16, I=   1, J=  90


 TOTAL NUMBER OF POINT SOURCES/SINKS PRESENT IN THE FLOW MODEL =    30

 MAXIMUM STEPSIZE WHICH MEETS STABILITY CRITERION OF THE SINK & SOURCE TERM
 =  12.22    (WHEN MIN. R.F.=1)  AT K=  17, I=   1, J=  91

 MAXIMUM STEPSIZE WHICH MEETS STABILITY CRITERION OF THE DISPERSION TERM
 =  4.031    (WHEN MIN. R.F.=1)  AT K=  17, I=   1, J=  90
     1 CALLS TO GCG PACKAGE FOR TRANSPORT TIME STEP 627 IN FLOW TIME STEP   1 STRESS PERIOD   1
     8 TOTAL ITERATIONS
     1 CALLS TO GCG PACKAGE FOR TRANSPORT TIME STEP 627 IN FLOW TIME STEP   1 STRESS PERIOD   1
     8 TOTAL ITERATIONS
 
 SOLVING FOR HEAD 


     2 CALLS TO PCG ROUTINE FOR TIME STEP   1 IN STRESS PERIOD    1
     9 TOTAL ITERATIONS

 MAXIMUM HEAD CHANGE FOR EACH ITERATION (1 INDICATES THE FIRST INNER ITERATION):

    HEAD CHANGE    HEAD CHANGE    HEAD CHANGE    HEAD CHANGE    HEAD CHANGE 
   LAYER,ROW,COL  LAYER,ROW,COL  LAYER,ROW,COL  LAYER,ROW,COL  LAYER,ROW,COL
 ---------------------------------------------------------------------------
  1 -0.1350E-01  0  0.3943E-02  0  0.3450E-02  0  0.8003E-02  0 -0.8013E-02
   ( 15,  1, 86)  ( 17,  1, 89)  (  8,  1, 12)  ( 10,  1, 56)  (  9,  1, 55)
  0  0.1045E-02  0  0.1081E-02  0  0.8308E-03  1 -0.8649E-03
   ( 11,  1, 68)  ( 11,  1, 70)  ( 11,  1, 57)  ( 11,  1, 70)

 MAXIMUM RESIDUAL FOR EACH ITERATION (1 INDICATES THE FIRST INNER ITERATION):

    RESIDUAL       RESIDUAL       RESIDUAL       RESIDUAL       RESIDUAL    
   LAYER,ROW,COL  LAYER,ROW,COL  LAYER,ROW,COL  LAYER,ROW,COL  LAYER,ROW,COL
 ---------------------------------------------------------------------------
  1 -0.1311E+06  0  0.9237E+05  0  0.9153E+05  0  0.3374E+05  0   5971.    
   ( 21,  1, 89)  ( 19,  1, 89)  ( 19,  1, 89)  ( 19,  1, 89)  ( 17,  1, 87)
  0  -2892.      0  -2449.      0  -798.3      1  -668.3    
   ( 22,  1, 87)  ( 22,  1, 87)  ( 22,  1, 87)  ( 22,  1, 87)


 FLOW MODEL IS TRANSIENT
 FLOW MODEL CONTAINS CONSTANT-HEAD CELLS


 MAXIMUM STEPSIZE DURING WHICH ANY PARTICLE CANNOT MOVE MORE THAN ONE CELL
 =  13.24    (WHEN MIN. R.F.=1)  AT K=  17, I=   1, J=  90

 MAXIMUM STEPSIZE WHICH MEETS STABILITY CRITERION OF THE ADVECTION TERM
 (FOR PURE FINITE-DIFFERENCE OPTION, MIXELM=0) 
 =  8.011    (WHEN MIN. R.F.=1)  AT K=  16, I=   1, J=  90


 TOTAL NUMBER OF POINT SOURCES/SINKS PRESENT IN THE FLOW MODEL =    30

 MAXIMUM STEPSIZE WHICH MEETS STABILITY CRITERION OF THE SINK & SOURCE TERM
 =  12.19    (WHEN MIN. R.F.=1)  AT K=  17, I=   1, J=  91

 MAXIMUM STEPSIZE WHICH MEETS STABILITY CRITERION OF THE DISPERSION TERM
 =  4.379    (WHEN MIN. R.F.=1)  AT K=  17, I=   1, J=  90
     1 CALLS TO GCG PACKAGE FOR TRANSPORT TIME STEP 628 IN FLOW TIME STEP   1 STRESS PERIOD   1
     9 TOTAL ITERATIONS
     1 CALLS TO GCG PACKAGE FOR TRANSPORT TIME STEP 628 IN FLOW TIME STEP   1 STRESS PERIOD   1
     8 TOTAL ITERATIONS
 
 SOLVING FOR HEAD 


     2 CALLS TO PCG ROUTINE FOR TIME STEP   1 IN STRESS PERIOD    1
     9 TOTAL ITERATIONS

 MAXIMUM HEAD CHANGE FOR EACH ITERATION (1 INDICATES THE FIRST INNER ITERATION):

    HEAD CHANGE    HEAD CHANGE    HEAD CHANGE    HEAD CHANGE    HEAD CHANGE 
   LAYER,ROW,COL  LAYER,ROW,COL  LAYER,ROW,COL  LAYER,ROW,COL  LAYER,ROW,COL
 ---------------------------------------------------------------------------
  1  0.1328E-01  0 -0.3749E-02  0 -0.3138E-02  0  0.7273E-02  0 -0.8084E-02
   ( 15,  1, 86)  ( 17,  1, 89)  (  8,  1, 12)  ( 11,  1, 51)  ( 11,  1, 52)
  0  0.1919E-02  0 -0.1382E-02  0 -0.6545E-03  1  0.4934E-03
   ( 11,  1, 54)  ( 11,  1, 66)  ( 11,  1, 49)  ( 11,  1, 53)

 MAXIMUM RESIDUAL FOR EACH ITERATION (1 INDICATES THE FIRST INNER ITERATION):

    RESIDUAL       RESIDUAL       RESIDUAL       RESIDUAL       RESIDUAL    
   LAYER,ROW,COL  LAYER,ROW,COL  LAYER,ROW,COL  LAYER,ROW,COL  LAYER,ROW,COL
 ---------------------------------------------------------------------------
  1  0.1341E+06  0 -0.9438E+05  0 -0.8891E+05  0 -0.2459E+05  0  -5336.    
   ( 21,  1, 89)  ( 19,  1, 89)  ( 19,  1, 89)  ( 19,  1, 89)  ( 17,  1, 87)
  0   2841.      0   2428.      0   977.8      1   862.8    
   ( 22,  1, 87)  ( 22,  1, 87)  ( 22,  1, 87)  ( 22,  1, 87)


 FLOW MODEL IS TRANSIENT
 FLOW MODEL CONTAINS CONSTANT-HEAD CELLS


 MAXIMUM STEPSIZE DURING WHICH ANY PARTICLE CANNOT MOVE MORE THAN ONE CELL
 =  12.86    (WHEN MIN. R.F.=1)  AT K=  17, I=   1, J=  90

 MAXIMUM STEPSIZE WHICH MEETS STABILITY CRITERION OF THE ADVECTION TERM
 (FOR PURE FINITE-DIFFERENCE OPTION, MIXELM=0) 
 =  8.036    (WHEN MIN. R.F.=1)  AT K=  16, I=   1, J=  90


 TOTAL NUMBER OF POINT SOURCES/SINKS PRESENT IN THE FLOW MODEL =    30

 MAXIMUM STEPSIZE WHICH MEETS STABILITY CRITERION OF THE SINK & SOURCE TERM
 =  12.21    (WHEN MIN. R.F.=1)  AT K=  17, I=   1, J=  91

 MAXIMUM STEPSIZE WHICH MEETS STABILITY CRITERION OF THE DISPERSION TERM
 =  4.029    (WHEN MIN. R.F.=1)  AT K=  17, I=   1, J=  90
     1 CALLS TO GCG PACKAGE FOR TRANSPORT TIME STEP 629 IN FLOW TIME STEP   1 STRESS PERIOD   1
     8 TOTAL ITERATIONS
     1 CALLS TO GCG PACKAGE FOR TRANSPORT TIME STEP 629 IN FLOW TIME STEP   1 STRESS PERIOD   1
     8 TOTAL ITERATIONS
 
 SOLVING FOR HEAD 


     2 CALLS TO PCG ROUTINE FOR TIME STEP   1 IN STRESS PERIOD    1
     8 TOTAL ITERATIONS

 MAXIMUM HEAD CHANGE FOR EACH ITERATION (1 INDICATES THE FIRST INNER ITERATION):

    HEAD CHANGE    HEAD CHANGE    HEAD CHANGE    HEAD CHANGE    HEAD CHANGE 
   LAYER,ROW,COL  LAYER,ROW,COL  LAYER,ROW,COL  LAYER,ROW,COL  LAYER,ROW,COL
 ---------------------------------------------------------------------------
  1 -0.1350E-01  0  0.3760E-02  0  0.2703E-02  0  0.8641E-02  0 -0.8530E-02
   ( 15,  1, 86)  ( 17,  1, 89)  (  8,  1, 12)  (  7,  1, 54)  (  8,  1, 54)
  0 -0.1126E-02  0  0.9816E-03  1  0.7460E-03
   ( 11,  1, 35)  ( 11,  1, 69)  ( 11,  1, 53)

 MAXIMUM RESIDUAL FOR EACH ITERATION (1 INDICATES THE FIRST INNER ITERATION):

    RESIDUAL       RESIDUAL       RESIDUAL       RESIDUAL       RESIDUAL    
   LAYER,ROW,COL  LAYER,ROW,COL  LAYER,ROW,COL  LAYER,ROW,COL  LAYER,ROW,COL
 ---------------------------------------------------------------------------
  1 -0.1335E+06  0  0.9386E+05  0  0.9274E+05  0  0.3699E+05  0   6055.    
   ( 21,  1, 89)  ( 19,  1, 89)  ( 19,  1, 89)  ( 19,  1, 89)  ( 17,  1, 87)
  0  -2841.      0  -2359.      1  -2048.    
   ( 22,  1, 87)  ( 22,  1, 87)  ( 22,  1, 87)


 FLOW MODEL IS TRANSIENT
 FLOW MODEL CONTAINS CONSTANT-HEAD CELLS


 MAXIMUM STEPSIZE DURING WHICH ANY PARTICLE CANNOT MOVE MORE THAN ONE CELL
 =  13.22    (WHEN MIN. R.F.=1)  AT K=  17, I=   1, J=  90

 MAXIMUM STEPSIZE WHICH MEETS STABILITY CRITERION OF THE ADVECTION TERM
 (FOR PURE FINITE-DIFFERENCE OPTION, MIXELM=0) 
 =  8.006    (WHEN MIN. R.F.=1)  AT K=  16, I=   1, J=  90


 TOTAL NUMBER OF POINT SOURCES/SINKS PRESENT IN THE FLOW MODEL =    30

 MAXIMUM STEPSIZE WHICH MEETS STABILITY CRITERION OF THE SINK & SOURCE TERM
 =  12.17    (WHEN MIN. R.F.=1)  AT K=  17, I=   1, J=  91

 MAXIMUM STEPSIZE WHICH MEETS STABILITY CRITERION OF THE DISPERSION TERM
 =  4.362    (WHEN MIN. R.F.=1)  AT K=  17, I=   1, J=  90
     1 CALLS TO GCG PACKAGE FOR TRANSPORT TIME STEP 630 IN FLOW TIME STEP   1 STRESS PERIOD   1
    10 TOTAL ITERATIONS
  MAXIMUM CONCENTRATION CHANGES FOR EACH ITERATION:
  MAX. CHANGE LAYER,ROW,COL MAX. CHANGE LAYER,ROW,COL MAX. CHANGE LAYER,ROW,COL MAX. CHANGE LAYER,ROW,COL MAX. CHANGE LAYER,ROW,COL
 ------------------------------------------------------------------------------------------------------------------------------------
   0.4897E-01 ( 20,  1, 87)  0.3331E-02 ( 19,  1, 87)  0.2206E-02 ( 18,  1, 87)  0.2181E-03 ( 16,  1, 88)  0.1473E-03 ( 16,  1, 89)
   0.2787E-04 ( 16,  1, 90)  0.3358E-05 ( 21,  1, 78)  0.1059E-05 ( 16,  1, 89)  0.3473E-05 ( 16,  1, 89)  0.9249E-07 ( 17,  1, 89)
     1 CALLS TO GCG PACKAGE FOR TRANSPORT TIME STEP 630 IN FLOW TIME STEP   1 STRESS PERIOD   1
     8 TOTAL ITERATIONS
  MAXIMUM CONCENTRATION CHANGES FOR EACH ITERATION:
  MAX. CHANGE LAYER,ROW,COL MAX. CHANGE LAYER,ROW,COL MAX. CHANGE LAYER,ROW,COL MAX. CHANGE LAYER,ROW,COL MAX. CHANGE LAYER,ROW,COL
 ------------------------------------------------------------------------------------------------------------------------------------
   0.5481E-01 ( 20,  1, 87)  0.3767E-02 ( 19,  1, 87)  0.2370E-02 ( 18,  1, 87)  0.2254E-03 ( 16,  1, 88)  0.1365E-03 ( 16,  1, 89)
   0.3610E-04 ( 16,  1, 90)  0.5297E-05 ( 17,  1, 90)  0.5865E-06 ( 16,  1, 89)



 >>>>>>>>>>>>>>>>>>>>>>>>>>>>>>>>>>>>>>>>>>>>>>>>>>>>>>>FOR COMPONENT NO. 01<<<<<<<<<<<<<<<<<<<<<<<<<<<<<<<<<<<<<<<<<<<<<<<<<<<<<<<


                                            -------------------------------------------
                                                      TRANSPORT STEP NO.  630
                                            -------------------------------------------

 TOTAL ELAPSED TIME SINCE BEGINNING OF SIMULATION =   31500.00    D   
 .....................................................................

                     CUMMULATIVE MASS BUDGETS AT END OF TRANSPORT STEP  630, TIME STEP    1, STRESS PERIOD    1
                     ------------------------------------------------------------------------------------------

                                                             IN                           OUT
                                                      ----------------             ----------------
                               CONSTANT CONCENTRATION:    0.000000                    0.000000    
                                        CONSTANT HEAD:   0.1246459E+10              -0.1246248E+10
                                                WELLS:    0.000000                    0.000000    
                                             RECHARGE:    0.000000                    0.000000    
                               1ST/0TH ORDER REACTION:    0.000000                    0.000000    
                                MASS STORAGE (SOLUTE):   0.1742459E+09              -0.1744570E+09
                            ---------------------------------------------------------------------------
                                              [TOTAL]:   0.1420707E+10 KG           -0.1420707E+10 KG  

                                                          NET (IN - OUT):   -220.4118    
                                                   DISCREPANCY (PERCENT):  -0.1551424E-04



 >>>>>>>>>>>>>>>>>>>>>>>>>>>>>>>>>>>>>>>>>>>>>>>>>>>>>>>FOR COMPONENT NO. 02<<<<<<<<<<<<<<<<<<<<<<<<<<<<<<<<<<<<<<<<<<<<<<<<<<<<<<<


                                            -------------------------------------------
                                                      TRANSPORT STEP NO.  630
                                            -------------------------------------------

 TOTAL ELAPSED TIME SINCE BEGINNING OF SIMULATION =   31500.00    D   
 .....................................................................

                     CUMMULATIVE MASS BUDGETS AT END OF TRANSPORT STEP  630, TIME STEP    1, STRESS PERIOD    1
                     ------------------------------------------------------------------------------------------

                                                             IN                           OUT
                                                      ----------------             ----------------
                               CONSTANT CONCENTRATION:    0.000000                    0.000000    
                                        CONSTANT HEAD:    0.000000                  -0.2207540E+12
                                                WELLS:    0.000000                    0.000000    
                                             RECHARGE:    0.000000                    0.000000    
                               1ST/0TH ORDER REACTION:   0.5213250E+12                0.000000    
                                MASS STORAGE (SOLUTE):   0.7630028E+11              -0.3768713E+12
                            ---------------------------------------------------------------------------
                                              [TOTAL]:   0.5976264E+12 KG           -0.5976264E+12 KG  

                                                          NET (IN - OUT):   -75567.60    
                                                   DISCREPANCY (PERCENT):  -0.1264462E-04
 
 SOLVING FOR HEAD 


     2 CALLS TO PCG ROUTINE FOR TIME STEP   1 IN STRESS PERIOD    1
     8 TOTAL ITERATIONS

 MAXIMUM HEAD CHANGE FOR EACH ITERATION (1 INDICATES THE FIRST INNER ITERATION):

    HEAD CHANGE    HEAD CHANGE    HEAD CHANGE    HEAD CHANGE    HEAD CHANGE 
   LAYER,ROW,COL  LAYER,ROW,COL  LAYER,ROW,COL  LAYER,ROW,COL  LAYER,ROW,COL
 ---------------------------------------------------------------------------
  1  0.1384E-01  0  0.5290E-02  0 -0.3552E-02  0 -0.1336E-01  0  0.1097E-01
   ( 15,  1, 86)  ( 11,  1, 53)  (  8,  1, 12)  ( 11,  1, 53)  ( 11,  1, 53)
  0 -0.1972E-02  0 -0.9419E-03  1 -0.5879E-03
   ( 11,  1, 69)  ( 11,  1, 52)  ( 11,  1, 65)

 MAXIMUM RESIDUAL FOR EACH ITERATION (1 INDICATES THE FIRST INNER ITERATION):

    RESIDUAL       RESIDUAL       RESIDUAL       RESIDUAL       RESIDUAL    
   LAYER,ROW,COL  LAYER,ROW,COL  LAYER,ROW,COL  LAYER,ROW,COL  LAYER,ROW,COL
 ---------------------------------------------------------------------------
  1  0.1336E+06  0 -0.9471E+05  0 -0.9385E+05  0 -0.5749E+05  0  -5406.    
   ( 21,  1, 89)  ( 19,  1, 89)  ( 19,  1, 89)  ( 19,  1, 89)  ( 17,  1, 87)
  0   2824.      0   2622.      1   1878.    
   ( 22,  1, 87)  ( 22,  1, 87)  ( 22,  1, 87)


 FLOW MODEL IS TRANSIENT
 FLOW MODEL CONTAINS CONSTANT-HEAD CELLS


 MAXIMUM STEPSIZE DURING WHICH ANY PARTICLE CANNOT MOVE MORE THAN ONE CELL
 =  12.90    (WHEN MIN. R.F.=1)  AT K=  17, I=   1, J=  90

 MAXIMUM STEPSIZE WHICH MEETS STABILITY CRITERION OF THE ADVECTION TERM
 (FOR PURE FINITE-DIFFERENCE OPTION, MIXELM=0) 
 =  8.057    (WHEN MIN. R.F.=1)  AT K=  16, I=   1, J=  90


 TOTAL NUMBER OF POINT SOURCES/SINKS PRESENT IN THE FLOW MODEL =    30

 MAXIMUM STEPSIZE WHICH MEETS STABILITY CRITERION OF THE SINK & SOURCE TERM
 =  12.28    (WHEN MIN. R.F.=1)  AT K=  17, I=   1, J=  91

 MAXIMUM STEPSIZE WHICH MEETS STABILITY CRITERION OF THE DISPERSION TERM
 =  4.046    (WHEN MIN. R.F.=1)  AT K=  17, I=   1, J=  90
     1 CALLS TO GCG PACKAGE FOR TRANSPORT TIME STEP 631 IN FLOW TIME STEP   1 STRESS PERIOD   1
     8 TOTAL ITERATIONS
     1 CALLS TO GCG PACKAGE FOR TRANSPORT TIME STEP 631 IN FLOW TIME STEP   1 STRESS PERIOD   1
     8 TOTAL ITERATIONS
 
 SOLVING FOR HEAD 


     2 CALLS TO PCG ROUTINE FOR TIME STEP   1 IN STRESS PERIOD    1
     9 TOTAL ITERATIONS

 MAXIMUM HEAD CHANGE FOR EACH ITERATION (1 INDICATES THE FIRST INNER ITERATION):

    HEAD CHANGE    HEAD CHANGE    HEAD CHANGE    HEAD CHANGE    HEAD CHANGE 
   LAYER,ROW,COL  LAYER,ROW,COL  LAYER,ROW,COL  LAYER,ROW,COL  LAYER,ROW,COL
 ---------------------------------------------------------------------------
  1 -0.1382E-01  0 -0.8822E-02  0  0.5460E-02  0 -0.8855E-02  0 -0.5846E-02
   ( 15,  1, 86)  (  6,  1, 53)  (  8,  1, 12)  ( 11,  1, 49)  ( 11,  1, 68)
  0  0.2886E-02  0 -0.1024E-02  0  0.8965E-03  1 -0.6896E-03
   ( 11,  1, 58)  ( 11,  1, 50)  ( 11,  1, 54)  ( 11,  1, 54)

 MAXIMUM RESIDUAL FOR EACH ITERATION (1 INDICATES THE FIRST INNER ITERATION):

    RESIDUAL       RESIDUAL       RESIDUAL       RESIDUAL       RESIDUAL    
   LAYER,ROW,COL  LAYER,ROW,COL  LAYER,ROW,COL  LAYER,ROW,COL  LAYER,ROW,COL
 ---------------------------------------------------------------------------
  1 -0.1367E+06  0  0.9691E+05  0  0.9641E+05  0  0.8232E+05  0   6201.    
   ( 21,  1, 89)  ( 19,  1, 89)  ( 19,  1, 89)  ( 19,  1, 89)  ( 17,  1, 87)
  0  -2895.      0  -2621.      0  -1321.      1  -1157.    
   ( 17,  1, 88)  ( 22,  1, 87)  ( 22,  1, 87)  ( 22,  1, 87)


 FLOW MODEL IS TRANSIENT
 FLOW MODEL CONTAINS CONSTANT-HEAD CELLS


 MAXIMUM STEPSIZE DURING WHICH ANY PARTICLE CANNOT MOVE MORE THAN ONE CELL
 =  13.21    (WHEN MIN. R.F.=1)  AT K=  17, I=   1, J=  90

 MAXIMUM STEPSIZE WHICH MEETS STABILITY CRITERION OF THE ADVECTION TERM
 (FOR PURE FINITE-DIFFERENCE OPTION, MIXELM=0) 
 =  7.998    (WHEN MIN. R.F.=1)  AT K=  16, I=   1, J=  90


 TOTAL NUMBER OF POINT SOURCES/SINKS PRESENT IN THE FLOW MODEL =    30

 MAXIMUM STEPSIZE WHICH MEETS STABILITY CRITERION OF THE SINK & SOURCE TERM
 =  12.17    (WHEN MIN. R.F.=1)  AT K=  17, I=   1, J=  91

 MAXIMUM STEPSIZE WHICH MEETS STABILITY CRITERION OF THE DISPERSION TERM
 =  4.370    (WHEN MIN. R.F.=1)  AT K=  17, I=   1, J=  90
     1 CALLS TO GCG PACKAGE FOR TRANSPORT TIME STEP 632 IN FLOW TIME STEP   1 STRESS PERIOD   1
     7 TOTAL ITERATIONS
     1 CALLS TO GCG PACKAGE FOR TRANSPORT TIME STEP 632 IN FLOW TIME STEP   1 STRESS PERIOD   1
     8 TOTAL ITERATIONS
 
 SOLVING FOR HEAD 


     2 CALLS TO PCG ROUTINE FOR TIME STEP   1 IN STRESS PERIOD    1
     8 TOTAL ITERATIONS

 MAXIMUM HEAD CHANGE FOR EACH ITERATION (1 INDICATES THE FIRST INNER ITERATION):

    HEAD CHANGE    HEAD CHANGE    HEAD CHANGE    HEAD CHANGE    HEAD CHANGE 
   LAYER,ROW,COL  LAYER,ROW,COL  LAYER,ROW,COL  LAYER,ROW,COL  LAYER,ROW,COL
 ---------------------------------------------------------------------------
  1  0.1350E-01  0 -0.4092E-02  0 -0.2465E-02  0  0.1015E-01  0 -0.1133E-01
   ( 15,  1, 86)  ( 17,  1, 89)  (  8,  1, 12)  ( 11,  1, 54)  ( 11,  1, 54)
  0  0.2245E-02  0 -0.9430E-03  1 -0.5682E-03
   ( 11,  1, 54)  ( 11,  1, 58)  ( 11,  1, 40)

 MAXIMUM RESIDUAL FOR EACH ITERATION (1 INDICATES THE FIRST INNER ITERATION):

    RESIDUAL       RESIDUAL       RESIDUAL       RESIDUAL       RESIDUAL    
   LAYER,ROW,COL  LAYER,ROW,COL  LAYER,ROW,COL  LAYER,ROW,COL  LAYER,ROW,COL
 ---------------------------------------------------------------------------
  1  0.1367E+06  0 -0.9773E+05  0 -0.9629E+05  0 -0.1935E+05  0   4908.    
   ( 21,  1, 89)  ( 19,  1, 89)  ( 19,  1, 89)  ( 19,  1, 89)  ( 17,  1, 88)
  0   2739.      0   2397.      1   1930.    
   ( 22,  1, 87)  ( 22,  1, 87)  ( 22,  1, 87)


 FLOW MODEL IS TRANSIENT
 FLOW MODEL CONTAINS CONSTANT-HEAD CELLS


 MAXIMUM STEPSIZE DURING WHICH ANY PARTICLE CANNOT MOVE MORE THAN ONE CELL
 =  12.84    (WHEN MIN. R.F.=1)  AT K=  17, I=   1, J=  90

 MAXIMUM STEPSIZE WHICH MEETS STABILITY CRITERION OF THE ADVECTION TERM
 (FOR PURE FINITE-DIFFERENCE OPTION, MIXELM=0) 
 =  8.033    (WHEN MIN. R.F.=1)  AT K=  16, I=   1, J=  90


 TOTAL NUMBER OF POINT SOURCES/SINKS PRESENT IN THE FLOW MODEL =    30

 MAXIMUM STEPSIZE WHICH MEETS STABILITY CRITERION OF THE SINK & SOURCE TERM
 =  12.21    (WHEN MIN. R.F.=1)  AT K=  17, I=   1, J=  91

 MAXIMUM STEPSIZE WHICH MEETS STABILITY CRITERION OF THE DISPERSION TERM
 =  4.019    (WHEN MIN. R.F.=1)  AT K=  17, I=   1, J=  90
     1 CALLS TO GCG PACKAGE FOR TRANSPORT TIME STEP 633 IN FLOW TIME STEP   1 STRESS PERIOD   1
     8 TOTAL ITERATIONS
     1 CALLS TO GCG PACKAGE FOR TRANSPORT TIME STEP 633 IN FLOW TIME STEP   1 STRESS PERIOD   1
     8 TOTAL ITERATIONS
 
 SOLVING FOR HEAD 


     2 CALLS TO PCG ROUTINE FOR TIME STEP   1 IN STRESS PERIOD    1
    10 TOTAL ITERATIONS

 MAXIMUM HEAD CHANGE FOR EACH ITERATION (1 INDICATES THE FIRST INNER ITERATION):

    HEAD CHANGE    HEAD CHANGE    HEAD CHANGE    HEAD CHANGE    HEAD CHANGE 
   LAYER,ROW,COL  LAYER,ROW,COL  LAYER,ROW,COL  LAYER,ROW,COL  LAYER,ROW,COL
 ---------------------------------------------------------------------------
  1 -0.1374E-01  0 -0.7074E-02  0  0.6764E-02  0  0.1071E-01  0  0.8758E-02
   ( 15,  1, 86)  (  9,  1, 12)  (  8,  1, 12)  ( 11,  1, 39)  (  6,  1, 44)
  0  0.4176E-02  0  0.1511E-02  0  0.1029E-02  0 -0.5952E-03  1 -0.1928E-03
   ( 11,  1, 49)  ( 11,  1, 65)  ( 11,  1, 53)  ( 11,  1, 53)  ( 11,  1, 71)

 MAXIMUM RESIDUAL FOR EACH ITERATION (1 INDICATES THE FIRST INNER ITERATION):

    RESIDUAL       RESIDUAL       RESIDUAL       RESIDUAL       RESIDUAL    
   LAYER,ROW,COL  LAYER,ROW,COL  LAYER,ROW,COL  LAYER,ROW,COL  LAYER,ROW,COL
 ---------------------------------------------------------------------------
  1 -0.1346E+06  0  0.9429E+05  0  0.9415E+05  0  0.6480E+05  0   6655.    
   ( 21,  1, 89)  ( 19,  1, 89)  ( 19,  1, 89)  ( 19,  1, 89)  ( 17,  1, 87)
  0  -3169.      0  -2557.      0  -1821.      0  -386.7      1   332.1    
   ( 17,  1, 88)  ( 22,  1, 87)  ( 22,  1, 87)  ( 22,  1, 87)  ( 18,  1, 90)


 FLOW MODEL IS TRANSIENT
 FLOW MODEL CONTAINS CONSTANT-HEAD CELLS


 MAXIMUM STEPSIZE DURING WHICH ANY PARTICLE CANNOT MOVE MORE THAN ONE CELL
 =  13.18    (WHEN MIN. R.F.=1)  AT K=  17, I=   1, J=  90

 MAXIMUM STEPSIZE WHICH MEETS STABILITY CRITERION OF THE ADVECTION TERM
 (FOR PURE FINITE-DIFFERENCE OPTION, MIXELM=0) 
 =  7.986    (WHEN MIN. R.F.=1)  AT K=  16, I=   1, J=  90


 TOTAL NUMBER OF POINT SOURCES/SINKS PRESENT IN THE FLOW MODEL =    30

 MAXIMUM STEPSIZE WHICH MEETS STABILITY CRITERION OF THE SINK & SOURCE TERM
 =  12.12    (WHEN MIN. R.F.=1)  AT K=  17, I=   1, J=  91

 MAXIMUM STEPSIZE WHICH MEETS STABILITY CRITERION OF THE DISPERSION TERM
 =  4.359    (WHEN MIN. R.F.=1)  AT K=  17, I=   1, J=  90
     1 CALLS TO GCG PACKAGE FOR TRANSPORT TIME STEP 634 IN FLOW TIME STEP   1 STRESS PERIOD   1
     9 TOTAL ITERATIONS
     1 CALLS TO GCG PACKAGE FOR TRANSPORT TIME STEP 634 IN FLOW TIME STEP   1 STRESS PERIOD   1
     8 TOTAL ITERATIONS
 
 SOLVING FOR HEAD 


     2 CALLS TO PCG ROUTINE FOR TIME STEP   1 IN STRESS PERIOD    1
     9 TOTAL ITERATIONS

 MAXIMUM HEAD CHANGE FOR EACH ITERATION (1 INDICATES THE FIRST INNER ITERATION):

    HEAD CHANGE    HEAD CHANGE    HEAD CHANGE    HEAD CHANGE    HEAD CHANGE 
   LAYER,ROW,COL  LAYER,ROW,COL  LAYER,ROW,COL  LAYER,ROW,COL  LAYER,ROW,COL
 ---------------------------------------------------------------------------
  1  0.1341E-01  0 -0.3989E-02  0 -0.2341E-02  0 -0.5230E-02  0  0.8082E-02
   ( 15,  1, 86)  ( 17,  1, 89)  (  8,  1, 12)  ( 11,  1, 54)  ( 11,  1, 54)
  0 -0.2909E-02  0 -0.1616E-02  0 -0.7067E-03  1  0.4274E-03
   ( 11,  1, 54)  ( 11,  1, 67)  ( 11,  1, 49)  ( 11,  1, 49)

 MAXIMUM RESIDUAL FOR EACH ITERATION (1 INDICATES THE FIRST INNER ITERATION):

    RESIDUAL       RESIDUAL       RESIDUAL       RESIDUAL       RESIDUAL    
   LAYER,ROW,COL  LAYER,ROW,COL  LAYER,ROW,COL  LAYER,ROW,COL  LAYER,ROW,COL
 ---------------------------------------------------------------------------
  1  0.1342E+06  0 -0.9483E+05  0 -0.9293E+05  0 -0.1361E+05  0   4118.    
   ( 21,  1, 89)  ( 19,  1, 89)  ( 19,  1, 89)  ( 19,  1, 89)  ( 17,  1, 88)
  0   2771.      0   1989.      0   697.6      1   602.9    
   ( 22,  1, 87)  ( 22,  1, 87)  ( 22,  1, 87)  ( 22,  1, 87)


 FLOW MODEL IS TRANSIENT
 FLOW MODEL CONTAINS CONSTANT-HEAD CELLS


 MAXIMUM STEPSIZE DURING WHICH ANY PARTICLE CANNOT MOVE MORE THAN ONE CELL
 =  12.83    (WHEN MIN. R.F.=1)  AT K=  17, I=   1, J=  90

 MAXIMUM STEPSIZE WHICH MEETS STABILITY CRITERION OF THE ADVECTION TERM
 (FOR PURE FINITE-DIFFERENCE OPTION, MIXELM=0) 
 =  8.026    (WHEN MIN. R.F.=1)  AT K=  16, I=   1, J=  90


 TOTAL NUMBER OF POINT SOURCES/SINKS PRESENT IN THE FLOW MODEL =    30

 MAXIMUM STEPSIZE WHICH MEETS STABILITY CRITERION OF THE SINK & SOURCE TERM
 =  12.17    (WHEN MIN. R.F.=1)  AT K=  17, I=   1, J=  91

 MAXIMUM STEPSIZE WHICH MEETS STABILITY CRITERION OF THE DISPERSION TERM
 =  4.017    (WHEN MIN. R.F.=1)  AT K=  17, I=   1, J=  90
     1 CALLS TO GCG PACKAGE FOR TRANSPORT TIME STEP 635 IN FLOW TIME STEP   1 STRESS PERIOD   1
     8 TOTAL ITERATIONS
  MAXIMUM CONCENTRATION CHANGES FOR EACH ITERATION:
  MAX. CHANGE LAYER,ROW,COL MAX. CHANGE LAYER,ROW,COL MAX. CHANGE LAYER,ROW,COL MAX. CHANGE LAYER,ROW,COL MAX. CHANGE LAYER,ROW,COL
 ------------------------------------------------------------------------------------------------------------------------------------
   0.5290E-01 ( 20,  1, 87)  0.4251E-02 ( 19,  1, 89)  0.2112E-02 ( 17,  1, 86)  0.4609E-03 ( 20,  1, 89)  0.9276E-04 ( 16,  1, 89)
   0.2031E-04 ( 20,  1, 89)  0.1927E-04 ( 16,  1, 90)  0.7572E-06 ( 17,  1, 90)
     1 CALLS TO GCG PACKAGE FOR TRANSPORT TIME STEP 635 IN FLOW TIME STEP   1 STRESS PERIOD   1
     8 TOTAL ITERATIONS
  MAXIMUM CONCENTRATION CHANGES FOR EACH ITERATION:
  MAX. CHANGE LAYER,ROW,COL MAX. CHANGE LAYER,ROW,COL MAX. CHANGE LAYER,ROW,COL MAX. CHANGE LAYER,ROW,COL MAX. CHANGE LAYER,ROW,COL
 ------------------------------------------------------------------------------------------------------------------------------------
   0.5884E-01 ( 20,  1, 87)  0.4854E-02 ( 19,  1, 89)  0.2074E-02 ( 18,  1, 86)  0.4204E-03 ( 20,  1, 89)  0.1108E-03 ( 16,  1, 89)
   0.1931E-04 ( 23,  1, 87)  0.1746E-04 ( 16,  1, 90)  0.8229E-06 ( 17,  1, 90)
 
 SOLVING FOR HEAD 


     2 CALLS TO PCG ROUTINE FOR TIME STEP   1 IN STRESS PERIOD    1
     9 TOTAL ITERATIONS

 MAXIMUM HEAD CHANGE FOR EACH ITERATION (1 INDICATES THE FIRST INNER ITERATION):

    HEAD CHANGE    HEAD CHANGE    HEAD CHANGE    HEAD CHANGE    HEAD CHANGE 
   LAYER,ROW,COL  LAYER,ROW,COL  LAYER,ROW,COL  LAYER,ROW,COL  LAYER,ROW,COL
 ---------------------------------------------------------------------------
  1 -0.1327E-01  0  0.3610E-02  0  0.2355E-02  0  0.8695E-02  0 -0.8773E-02
   ( 15,  1, 86)  ( 17,  1, 89)  (  7,  1, 12)  (  8,  1, 51)  (  8,  1, 51)
  0 -0.1490E-02  0  0.1084E-02  0  0.6945E-03  1 -0.8852E-03
   ( 11,  1, 38)  ( 11,  1, 55)  ( 11,  1, 70)  ( 11,  1, 70)

 MAXIMUM RESIDUAL FOR EACH ITERATION (1 INDICATES THE FIRST INNER ITERATION):

    RESIDUAL       RESIDUAL       RESIDUAL       RESIDUAL       RESIDUAL    
   LAYER,ROW,COL  LAYER,ROW,COL  LAYER,ROW,COL  LAYER,ROW,COL  LAYER,ROW,COL
 ---------------------------------------------------------------------------
  1 -0.1310E+06  0  0.9186E+05  0  0.9043E+05  0  0.3540E+05  0   6268.    
   ( 21,  1, 89)  ( 19,  1, 89)  ( 19,  1, 89)  ( 19,  1, 89)  ( 17,  1, 87)
  0  -2822.      0  -2392.      0  -765.7      1  -629.2    
   ( 22,  1, 87)  ( 22,  1, 87)  ( 22,  1, 87)  ( 22,  1, 87)


 FLOW MODEL IS TRANSIENT
 FLOW MODEL CONTAINS CONSTANT-HEAD CELLS


 MAXIMUM STEPSIZE DURING WHICH ANY PARTICLE CANNOT MOVE MORE THAN ONE CELL
 =  13.21    (WHEN MIN. R.F.=1)  AT K=  17, I=   1, J=  90

 MAXIMUM STEPSIZE WHICH MEETS STABILITY CRITERION OF THE ADVECTION TERM
 (FOR PURE FINITE-DIFFERENCE OPTION, MIXELM=0) 
 =  8.002    (WHEN MIN. R.F.=1)  AT K=  16, I=   1, J=  90


 TOTAL NUMBER OF POINT SOURCES/SINKS PRESENT IN THE FLOW MODEL =    30

 MAXIMUM STEPSIZE WHICH MEETS STABILITY CRITERION OF THE SINK & SOURCE TERM
 =  12.17    (WHEN MIN. R.F.=1)  AT K=  17, I=   1, J=  91

 MAXIMUM STEPSIZE WHICH MEETS STABILITY CRITERION OF THE DISPERSION TERM
 =  4.364    (WHEN MIN. R.F.=1)  AT K=  17, I=   1, J=  90
     1 CALLS TO GCG PACKAGE FOR TRANSPORT TIME STEP 636 IN FLOW TIME STEP   1 STRESS PERIOD   1
     7 TOTAL ITERATIONS
     1 CALLS TO GCG PACKAGE FOR TRANSPORT TIME STEP 636 IN FLOW TIME STEP   1 STRESS PERIOD   1
     8 TOTAL ITERATIONS
 
 SOLVING FOR HEAD 


     2 CALLS TO PCG ROUTINE FOR TIME STEP   1 IN STRESS PERIOD    1
     8 TOTAL ITERATIONS

 MAXIMUM HEAD CHANGE FOR EACH ITERATION (1 INDICATES THE FIRST INNER ITERATION):

    HEAD CHANGE    HEAD CHANGE    HEAD CHANGE    HEAD CHANGE    HEAD CHANGE 
   LAYER,ROW,COL  LAYER,ROW,COL  LAYER,ROW,COL  LAYER,ROW,COL  LAYER,ROW,COL
 ---------------------------------------------------------------------------
  1  0.1348E-01  0 -0.3681E-02  0 -0.2398E-02  0 -0.1221E-01  0  0.1329E-01
   ( 15,  1, 86)  ( 17,  1, 89)  (  8,  1, 12)  ( 11,  1, 58)  ( 11,  1, 58)
  0 -0.1879E-02  0  0.8429E-03  1 -0.8263E-03
   ( 11,  1, 55)  ( 11,  1, 52)  ( 11,  1, 51)

 MAXIMUM RESIDUAL FOR EACH ITERATION (1 INDICATES THE FIRST INNER ITERATION):

    RESIDUAL       RESIDUAL       RESIDUAL       RESIDUAL       RESIDUAL    
   LAYER,ROW,COL  LAYER,ROW,COL  LAYER,ROW,COL  LAYER,ROW,COL  LAYER,ROW,COL
 ---------------------------------------------------------------------------
  1  0.1304E+06  0 -0.9056E+05  0 -0.8809E+05  0 -0.2180E+05  0  -5075.    
   ( 21,  1, 89)  ( 19,  1, 89)  ( 19,  1, 89)  ( 19,  1, 89)  ( 17,  1, 87)
  0   2903.      0   2407.      1   2076.    
   ( 22,  1, 87)  ( 22,  1, 87)  ( 22,  1, 87)


 FLOW MODEL IS TRANSIENT
 FLOW MODEL CONTAINS CONSTANT-HEAD CELLS


 MAXIMUM STEPSIZE DURING WHICH ANY PARTICLE CANNOT MOVE MORE THAN ONE CELL
 =  12.85    (WHEN MIN. R.F.=1)  AT K=  17, I=   1, J=  90

 MAXIMUM STEPSIZE WHICH MEETS STABILITY CRITERION OF THE ADVECTION TERM
 (FOR PURE FINITE-DIFFERENCE OPTION, MIXELM=0) 
 =  8.028    (WHEN MIN. R.F.=1)  AT K=  16, I=   1, J=  90


 TOTAL NUMBER OF POINT SOURCES/SINKS PRESENT IN THE FLOW MODEL =    30

 MAXIMUM STEPSIZE WHICH MEETS STABILITY CRITERION OF THE SINK & SOURCE TERM
 =  12.20    (WHEN MIN. R.F.=1)  AT K=  17, I=   1, J=  91

 MAXIMUM STEPSIZE WHICH MEETS STABILITY CRITERION OF THE DISPERSION TERM
 =  4.030    (WHEN MIN. R.F.=1)  AT K=  17, I=   1, J=  90
     1 CALLS TO GCG PACKAGE FOR TRANSPORT TIME STEP 637 IN FLOW TIME STEP   1 STRESS PERIOD   1
     8 TOTAL ITERATIONS
     1 CALLS TO GCG PACKAGE FOR TRANSPORT TIME STEP 637 IN FLOW TIME STEP   1 STRESS PERIOD   1
     8 TOTAL ITERATIONS
 
 SOLVING FOR HEAD 


     2 CALLS TO PCG ROUTINE FOR TIME STEP   1 IN STRESS PERIOD    1
     9 TOTAL ITERATIONS

 MAXIMUM HEAD CHANGE FOR EACH ITERATION (1 INDICATES THE FIRST INNER ITERATION):

    HEAD CHANGE    HEAD CHANGE    HEAD CHANGE    HEAD CHANGE    HEAD CHANGE 
   LAYER,ROW,COL  LAYER,ROW,COL  LAYER,ROW,COL  LAYER,ROW,COL  LAYER,ROW,COL
 ---------------------------------------------------------------------------
  1 -0.1367E-01  0 -0.6532E-02  0  0.3940E-02  0  0.1667E-01  0 -0.1354E-01
   ( 15,  1, 86)  ( 11,  1, 51)  (  8,  1, 12)  ( 11,  1, 51)  ( 11,  1, 50)
  0  0.2219E-02  0  0.1091E-02  0  0.8215E-03  1 -0.6280E-03
   ( 11,  1, 36)  ( 11,  1, 51)  ( 11,  1, 64)  ( 11,  1, 64)

 MAXIMUM RESIDUAL FOR EACH ITERATION (1 INDICATES THE FIRST INNER ITERATION):

    RESIDUAL       RESIDUAL       RESIDUAL       RESIDUAL       RESIDUAL    
   LAYER,ROW,COL  LAYER,ROW,COL  LAYER,ROW,COL  LAYER,ROW,COL  LAYER,ROW,COL
 ---------------------------------------------------------------------------
  1 -0.1353E+06  0  0.9657E+05  0  0.9576E+05  0  0.5800E+05  0   5877.    
   ( 21,  1, 89)  ( 19,  1, 89)  ( 19,  1, 89)  ( 19,  1, 89)  ( 17,  1, 87)
  0  -2801.      0  -2580.      0  -1386.      1  -1229.    
   ( 17,  1, 88)  ( 22,  1, 87)  ( 22,  1, 87)  ( 22,  1, 87)


 FLOW MODEL IS TRANSIENT
 FLOW MODEL CONTAINS CONSTANT-HEAD CELLS


 MAXIMUM STEPSIZE DURING WHICH ANY PARTICLE CANNOT MOVE MORE THAN ONE CELL
 =  13.15    (WHEN MIN. R.F.=1)  AT K=  17, I=   1, J=  90

 MAXIMUM STEPSIZE WHICH MEETS STABILITY CRITERION OF THE ADVECTION TERM
 (FOR PURE FINITE-DIFFERENCE OPTION, MIXELM=0) 
 =  7.976    (WHEN MIN. R.F.=1)  AT K=  16, I=   1, J=  90


 TOTAL NUMBER OF POINT SOURCES/SINKS PRESENT IN THE FLOW MODEL =    30

 MAXIMUM STEPSIZE WHICH MEETS STABILITY CRITERION OF THE SINK & SOURCE TERM
 =  12.09    (WHEN MIN. R.F.=1)  AT K=  17, I=   1, J=  91

 MAXIMUM STEPSIZE WHICH MEETS STABILITY CRITERION OF THE DISPERSION TERM
 =  4.336    (WHEN MIN. R.F.=1)  AT K=  17, I=   1, J=  90
     1 CALLS TO GCG PACKAGE FOR TRANSPORT TIME STEP 638 IN FLOW TIME STEP   1 STRESS PERIOD   1
     8 TOTAL ITERATIONS
     1 CALLS TO GCG PACKAGE FOR TRANSPORT TIME STEP 638 IN FLOW TIME STEP   1 STRESS PERIOD   1
     8 TOTAL ITERATIONS
 
 SOLVING FOR HEAD 


     2 CALLS TO PCG ROUTINE FOR TIME STEP   1 IN STRESS PERIOD    1
     8 TOTAL ITERATIONS

 MAXIMUM HEAD CHANGE FOR EACH ITERATION (1 INDICATES THE FIRST INNER ITERATION):

    HEAD CHANGE    HEAD CHANGE    HEAD CHANGE    HEAD CHANGE    HEAD CHANGE 
   LAYER,ROW,COL  LAYER,ROW,COL  LAYER,ROW,COL  LAYER,ROW,COL  LAYER,ROW,COL
 ---------------------------------------------------------------------------
  1  0.1377E-01  0 -0.4102E-02  0 -0.3741E-02  0 -0.7252E-02  0  0.7750E-02
   ( 15,  1, 86)  ( 17,  1, 89)  (  8,  1, 12)  (  9,  1, 41)  (  7,  1, 41)
  0  0.1553E-02  0  0.7574E-03  1 -0.6101E-03
   ( 11,  1, 36)  ( 11,  1, 65)  ( 11,  1, 65)

 MAXIMUM RESIDUAL FOR EACH ITERATION (1 INDICATES THE FIRST INNER ITERATION):

    RESIDUAL       RESIDUAL       RESIDUAL       RESIDUAL       RESIDUAL    
   LAYER,ROW,COL  LAYER,ROW,COL  LAYER,ROW,COL  LAYER,ROW,COL  LAYER,ROW,COL
 ---------------------------------------------------------------------------
  1  0.1337E+06  0 -0.9509E+05  0 -0.9428E+05  0 -0.2666E+05  0  -5305.    
   ( 21,  1, 89)  ( 19,  1, 89)  ( 19,  1, 89)  ( 19,  1, 89)  ( 17,  1, 87)
  0   2784.      0   2525.      1   1971.    
   ( 22,  1, 87)  ( 22,  1, 87)  ( 22,  1, 87)


 FLOW MODEL IS TRANSIENT
 FLOW MODEL CONTAINS CONSTANT-HEAD CELLS


 MAXIMUM STEPSIZE DURING WHICH ANY PARTICLE CANNOT MOVE MORE THAN ONE CELL
 =  12.84    (WHEN MIN. R.F.=1)  AT K=  17, I=   1, J=  90

 MAXIMUM STEPSIZE WHICH MEETS STABILITY CRITERION OF THE ADVECTION TERM
 (FOR PURE FINITE-DIFFERENCE OPTION, MIXELM=0) 
 =  8.028    (WHEN MIN. R.F.=1)  AT K=  16, I=   1, J=  90


 TOTAL NUMBER OF POINT SOURCES/SINKS PRESENT IN THE FLOW MODEL =    30

 MAXIMUM STEPSIZE WHICH MEETS STABILITY CRITERION OF THE SINK & SOURCE TERM
 =  12.19    (WHEN MIN. R.F.=1)  AT K=  17, I=   1, J=  91

 MAXIMUM STEPSIZE WHICH MEETS STABILITY CRITERION OF THE DISPERSION TERM
 =  4.022    (WHEN MIN. R.F.=1)  AT K=  17, I=   1, J=  90
     1 CALLS TO GCG PACKAGE FOR TRANSPORT TIME STEP 639 IN FLOW TIME STEP   1 STRESS PERIOD   1
     8 TOTAL ITERATIONS
     1 CALLS TO GCG PACKAGE FOR TRANSPORT TIME STEP 639 IN FLOW TIME STEP   1 STRESS PERIOD   1
     8 TOTAL ITERATIONS
 
 SOLVING FOR HEAD 


     2 CALLS TO PCG ROUTINE FOR TIME STEP   1 IN STRESS PERIOD    1
     8 TOTAL ITERATIONS

 MAXIMUM HEAD CHANGE FOR EACH ITERATION (1 INDICATES THE FIRST INNER ITERATION):

    HEAD CHANGE    HEAD CHANGE    HEAD CHANGE    HEAD CHANGE    HEAD CHANGE 
   LAYER,ROW,COL  LAYER,ROW,COL  LAYER,ROW,COL  LAYER,ROW,COL  LAYER,ROW,COL
 ---------------------------------------------------------------------------
  1 -0.1362E-01  0 -0.7105E-02  0  0.4409E-02  0 -0.9064E-02  0 -0.6353E-02
   ( 15,  1, 86)  (  8,  1, 57)  (  8,  1, 12)  ( 11,  1, 52)  ( 11,  1, 68)
  0  0.2861E-02  0 -0.9976E-03  1  0.7468E-03
   ( 11,  1, 57)  ( 11,  1, 56)  ( 11,  1, 52)

 MAXIMUM RESIDUAL FOR EACH ITERATION (1 INDICATES THE FIRST INNER ITERATION):

    RESIDUAL       RESIDUAL       RESIDUAL       RESIDUAL       RESIDUAL    
   LAYER,ROW,COL  LAYER,ROW,COL  LAYER,ROW,COL  LAYER,ROW,COL  LAYER,ROW,COL
 ---------------------------------------------------------------------------
  1 -0.1325E+06  0  0.9310E+05  0  0.9244E+05  0  0.7586E+05  0   6452.    
   ( 21,  1, 89)  ( 19,  1, 89)  ( 19,  1, 89)  ( 19,  1, 89)  ( 17,  1, 87)
  0  -3105.      0  -2610.      1  -1712.    
   ( 17,  1, 88)  ( 22,  1, 87)  ( 22,  1, 87)


 FLOW MODEL IS TRANSIENT
 FLOW MODEL CONTAINS CONSTANT-HEAD CELLS


 MAXIMUM STEPSIZE DURING WHICH ANY PARTICLE CANNOT MOVE MORE THAN ONE CELL
 =  13.19    (WHEN MIN. R.F.=1)  AT K=  17, I=   1, J=  90

 MAXIMUM STEPSIZE WHICH MEETS STABILITY CRITERION OF THE ADVECTION TERM
 (FOR PURE FINITE-DIFFERENCE OPTION, MIXELM=0) 
 =  7.989    (WHEN MIN. R.F.=1)  AT K=  16, I=   1, J=  90


 TOTAL NUMBER OF POINT SOURCES/SINKS PRESENT IN THE FLOW MODEL =    30

 MAXIMUM STEPSIZE WHICH MEETS STABILITY CRITERION OF THE SINK & SOURCE TERM
 =  12.13    (WHEN MIN. R.F.=1)  AT K=  17, I=   1, J=  91

 MAXIMUM STEPSIZE WHICH MEETS STABILITY CRITERION OF THE DISPERSION TERM
 =  4.360    (WHEN MIN. R.F.=1)  AT K=  17, I=   1, J=  90
     1 CALLS TO GCG PACKAGE FOR TRANSPORT TIME STEP 640 IN FLOW TIME STEP   1 STRESS PERIOD   1
     8 TOTAL ITERATIONS
  MAXIMUM CONCENTRATION CHANGES FOR EACH ITERATION:
  MAX. CHANGE LAYER,ROW,COL MAX. CHANGE LAYER,ROW,COL MAX. CHANGE LAYER,ROW,COL MAX. CHANGE LAYER,ROW,COL MAX. CHANGE LAYER,ROW,COL
 ------------------------------------------------------------------------------------------------------------------------------------
   0.4836E-01 ( 20,  1, 87)  0.3260E-02 ( 19,  1, 87)  0.2114E-02 ( 18,  1, 87)  0.2112E-03 ( 16,  1, 88)  0.1438E-03 ( 16,  1, 89)
   0.2687E-04 ( 16,  1, 90)  0.2659E-05 ( 21,  1, 78)  0.2442E-06 ( 15,  1, 89)
     1 CALLS TO GCG PACKAGE FOR TRANSPORT TIME STEP 640 IN FLOW TIME STEP   1 STRESS PERIOD   1
     8 TOTAL ITERATIONS
  MAXIMUM CONCENTRATION CHANGES FOR EACH ITERATION:
  MAX. CHANGE LAYER,ROW,COL MAX. CHANGE LAYER,ROW,COL MAX. CHANGE LAYER,ROW,COL MAX. CHANGE LAYER,ROW,COL MAX. CHANGE LAYER,ROW,COL
 ------------------------------------------------------------------------------------------------------------------------------------
   0.5494E-01 ( 20,  1, 87)  0.3737E-02 ( 19,  1, 87)  0.2303E-02 ( 18,  1, 87)  0.2221E-03 ( 16,  1, 88)  0.1344E-03 ( 17,  1, 89)
   0.3540E-04 ( 16,  1, 90)  0.5040E-05 ( 17,  1, 90)  0.6002E-06 ( 16,  1, 89)



 >>>>>>>>>>>>>>>>>>>>>>>>>>>>>>>>>>>>>>>>>>>>>>>>>>>>>>>FOR COMPONENT NO. 01<<<<<<<<<<<<<<<<<<<<<<<<<<<<<<<<<<<<<<<<<<<<<<<<<<<<<<<


                                            -------------------------------------------
                                                      TRANSPORT STEP NO.  640
                                            -------------------------------------------

 TOTAL ELAPSED TIME SINCE BEGINNING OF SIMULATION =   32000.00    D   
 .....................................................................

                     CUMMULATIVE MASS BUDGETS AT END OF TRANSPORT STEP  640, TIME STEP    1, STRESS PERIOD    1
                     ------------------------------------------------------------------------------------------

                                                             IN                           OUT
                                                      ----------------             ----------------
                               CONSTANT CONCENTRATION:    0.000000                    0.000000    
                                        CONSTANT HEAD:   0.1266252E+10              -0.1266043E+10
                                                WELLS:    0.000000                    0.000000    
                                             RECHARGE:    0.000000                    0.000000    
                               1ST/0TH ORDER REACTION:    0.000000                    0.000000    
                                MASS STORAGE (SOLUTE):   0.1770162E+09              -0.1772261E+09
                            ---------------------------------------------------------------------------
                                              [TOTAL]:   0.1443270E+10 KG           -0.1443270E+10 KG  

                                                          NET (IN - OUT):   -244.8345    
                                                   DISCREPANCY (PERCENT):  -0.1696388E-04



 >>>>>>>>>>>>>>>>>>>>>>>>>>>>>>>>>>>>>>>>>>>>>>>>>>>>>>>FOR COMPONENT NO. 02<<<<<<<<<<<<<<<<<<<<<<<<<<<<<<<<<<<<<<<<<<<<<<<<<<<<<<<


                                            -------------------------------------------
                                                      TRANSPORT STEP NO.  640
                                            -------------------------------------------

 TOTAL ELAPSED TIME SINCE BEGINNING OF SIMULATION =   32000.00    D   
 .....................................................................

                     CUMMULATIVE MASS BUDGETS AT END OF TRANSPORT STEP  640, TIME STEP    1, STRESS PERIOD    1
                     ------------------------------------------------------------------------------------------

                                                             IN                           OUT
                                                      ----------------             ----------------
                               CONSTANT CONCENTRATION:    0.000000                    0.000000    
                                        CONSTANT HEAD:    0.000000                  -0.2266195E+12
                                                WELLS:    0.000000                    0.000000    
                                             RECHARGE:    0.000000                    0.000000    
                               1ST/0TH ORDER REACTION:   0.5296000E+12                0.000000    
                                MASS STORAGE (SOLUTE):   0.7880211E+11              -0.3817827E+12
                            ---------------------------------------------------------------------------
                                              [TOTAL]:   0.6084032E+12 KG           -0.6084033E+12 KG  

                                                          NET (IN - OUT):   -77730.04    
                                                   DISCREPANCY (PERCENT):  -0.1277607E-04
 
 SOLVING FOR HEAD 


     2 CALLS TO PCG ROUTINE FOR TIME STEP   1 IN STRESS PERIOD    1
    10 TOTAL ITERATIONS

 MAXIMUM HEAD CHANGE FOR EACH ITERATION (1 INDICATES THE FIRST INNER ITERATION):

    HEAD CHANGE    HEAD CHANGE    HEAD CHANGE    HEAD CHANGE    HEAD CHANGE 
   LAYER,ROW,COL  LAYER,ROW,COL  LAYER,ROW,COL  LAYER,ROW,COL  LAYER,ROW,COL
 ---------------------------------------------------------------------------
  1  0.1363E-01  0  0.9037E-02  0 -0.3433E-02  0 -0.1082E-01  0  0.6772E-02
   ( 15,  1, 86)  ( 11,  1, 52)  (  8,  1, 12)  ( 11,  1, 52)  (  8,  1, 44)
  0 -0.4009E-02  0 -0.1429E-02  0 -0.1062E-02  0 -0.5992E-03  1  0.3929E-03
   ( 11,  1, 68)  ( 11,  1, 50)  ( 11,  1, 64)  ( 11,  1, 57)  ( 11,  1, 70)

 MAXIMUM RESIDUAL FOR EACH ITERATION (1 INDICATES THE FIRST INNER ITERATION):

    RESIDUAL       RESIDUAL       RESIDUAL       RESIDUAL       RESIDUAL    
   LAYER,ROW,COL  LAYER,ROW,COL  LAYER,ROW,COL  LAYER,ROW,COL  LAYER,ROW,COL
 ---------------------------------------------------------------------------
  1  0.1359E+06  0 -0.9661E+05  0 -0.9564E+05  0 -0.7710E+05  0   6625.    
   ( 21,  1, 89)  ( 19,  1, 89)  ( 19,  1, 89)  ( 19,  1, 89)  ( 17,  1, 88)
  0   3298.      0   2499.      0   1939.      0   439.9      1   371.2    
   ( 17,  1, 88)  ( 22,  1, 87)  ( 22,  1, 87)  ( 22,  1, 87)  ( 22,  1, 87)


 FLOW MODEL IS TRANSIENT
 FLOW MODEL CONTAINS CONSTANT-HEAD CELLS


 MAXIMUM STEPSIZE DURING WHICH ANY PARTICLE CANNOT MOVE MORE THAN ONE CELL
 =  12.88    (WHEN MIN. R.F.=1)  AT K=  17, I=   1, J=  90

 MAXIMUM STEPSIZE WHICH MEETS STABILITY CRITERION OF THE ADVECTION TERM
 (FOR PURE FINITE-DIFFERENCE OPTION, MIXELM=0) 
 =  8.048    (WHEN MIN. R.F.=1)  AT K=  16, I=   1, J=  90


 TOTAL NUMBER OF POINT SOURCES/SINKS PRESENT IN THE FLOW MODEL =    30

 MAXIMUM STEPSIZE WHICH MEETS STABILITY CRITERION OF THE SINK & SOURCE TERM
 =  12.23    (WHEN MIN. R.F.=1)  AT K=  17, I=   1, J=  91

 MAXIMUM STEPSIZE WHICH MEETS STABILITY CRITERION OF THE DISPERSION TERM
 =  4.035    (WHEN MIN. R.F.=1)  AT K=  17, I=   1, J=  90
     1 CALLS TO GCG PACKAGE FOR TRANSPORT TIME STEP 641 IN FLOW TIME STEP   1 STRESS PERIOD   1
     8 TOTAL ITERATIONS
     1 CALLS TO GCG PACKAGE FOR TRANSPORT TIME STEP 641 IN FLOW TIME STEP   1 STRESS PERIOD   1
     8 TOTAL ITERATIONS
 
 SOLVING FOR HEAD 


     2 CALLS TO PCG ROUTINE FOR TIME STEP   1 IN STRESS PERIOD    1
     8 TOTAL ITERATIONS

 MAXIMUM HEAD CHANGE FOR EACH ITERATION (1 INDICATES THE FIRST INNER ITERATION):

    HEAD CHANGE    HEAD CHANGE    HEAD CHANGE    HEAD CHANGE    HEAD CHANGE 
   LAYER,ROW,COL  LAYER,ROW,COL  LAYER,ROW,COL  LAYER,ROW,COL  LAYER,ROW,COL
 ---------------------------------------------------------------------------
  1 -0.1341E-01  0  0.3855E-02  0  0.2785E-02  0 -0.5532E-02  0  0.6559E-02
   ( 15,  1, 86)  ( 17,  1, 89)  (  8,  1, 12)  ( 11,  1, 55)  ( 11,  1, 54)
  0 -0.1700E-02  0  0.9630E-03  1 -0.5533E-03
   ( 11,  1, 54)  ( 11,  1, 49)  ( 11,  1, 49)

 MAXIMUM RESIDUAL FOR EACH ITERATION (1 INDICATES THE FIRST INNER ITERATION):

    RESIDUAL       RESIDUAL       RESIDUAL       RESIDUAL       RESIDUAL    
   LAYER,ROW,COL  LAYER,ROW,COL  LAYER,ROW,COL  LAYER,ROW,COL  LAYER,ROW,COL
 ---------------------------------------------------------------------------
  1 -0.1325E+06  0  0.9377E+05  0  0.9271E+05  0  0.1534E+05  0  -4469.    
   ( 21,  1, 89)  ( 19,  1, 89)  ( 19,  1, 89)  ( 19,  1, 89)  ( 17,  1, 88)
  0  -2780.      0  -2424.      1  -2019.    
   ( 22,  1, 87)  ( 22,  1, 87)  ( 22,  1, 87)


 FLOW MODEL IS TRANSIENT
 FLOW MODEL CONTAINS CONSTANT-HEAD CELLS


 MAXIMUM STEPSIZE DURING WHICH ANY PARTICLE CANNOT MOVE MORE THAN ONE CELL
 =  13.27    (WHEN MIN. R.F.=1)  AT K=  17, I=   1, J=  90

 MAXIMUM STEPSIZE WHICH MEETS STABILITY CRITERION OF THE ADVECTION TERM
 (FOR PURE FINITE-DIFFERENCE OPTION, MIXELM=0) 
 =  8.021    (WHEN MIN. R.F.=1)  AT K=  16, I=   1, J=  90


 TOTAL NUMBER OF POINT SOURCES/SINKS PRESENT IN THE FLOW MODEL =    30

 MAXIMUM STEPSIZE WHICH MEETS STABILITY CRITERION OF THE SINK & SOURCE TERM
 =  12.21    (WHEN MIN. R.F.=1)  AT K=  17, I=   1, J=  91

 MAXIMUM STEPSIZE WHICH MEETS STABILITY CRITERION OF THE DISPERSION TERM
 =  4.391    (WHEN MIN. R.F.=1)  AT K=  17, I=   1, J=  90
     1 CALLS TO GCG PACKAGE FOR TRANSPORT TIME STEP 642 IN FLOW TIME STEP   1 STRESS PERIOD   1
    10 TOTAL ITERATIONS
     1 CALLS TO GCG PACKAGE FOR TRANSPORT TIME STEP 642 IN FLOW TIME STEP   1 STRESS PERIOD   1
     8 TOTAL ITERATIONS
 
 SOLVING FOR HEAD 


     2 CALLS TO PCG ROUTINE FOR TIME STEP   1 IN STRESS PERIOD    1
     9 TOTAL ITERATIONS

 MAXIMUM HEAD CHANGE FOR EACH ITERATION (1 INDICATES THE FIRST INNER ITERATION):

    HEAD CHANGE    HEAD CHANGE    HEAD CHANGE    HEAD CHANGE    HEAD CHANGE 
   LAYER,ROW,COL  LAYER,ROW,COL  LAYER,ROW,COL  LAYER,ROW,COL  LAYER,ROW,COL
 ---------------------------------------------------------------------------
  1  0.1363E-01  0  0.6388E-02  0 -0.3489E-02  0 -0.8789E-02  0  0.7054E-02
   ( 15,  1, 86)  (  7,  1, 35)  (  7,  1, 12)  (  7,  1, 51)  ( 10,  1, 51)
  0  0.3900E-02  0 -0.1056E-02  0 -0.5489E-03  1 -0.5394E-03
   ( 11,  1, 40)  ( 11,  1, 40)  ( 11,  1, 70)  ( 11,  1, 49)

 MAXIMUM RESIDUAL FOR EACH ITERATION (1 INDICATES THE FIRST INNER ITERATION):

    RESIDUAL       RESIDUAL       RESIDUAL       RESIDUAL       RESIDUAL    
   LAYER,ROW,COL  LAYER,ROW,COL  LAYER,ROW,COL  LAYER,ROW,COL  LAYER,ROW,COL
 ---------------------------------------------------------------------------
  1  0.1354E+06  0 -0.9563E+05  0 -0.9473E+05  0 -0.7261E+05  0  -6276.    
   ( 21,  1, 89)  ( 19,  1, 89)  ( 19,  1, 89)  ( 19,  1, 89)  ( 17,  1, 87)
  0   3012.      0   2610.      0   1116.      1   996.6    
   ( 17,  1, 88)  ( 22,  1, 87)  ( 22,  1, 87)  ( 22,  1, 87)


 FLOW MODEL IS TRANSIENT
 FLOW MODEL CONTAINS CONSTANT-HEAD CELLS


 MAXIMUM STEPSIZE DURING WHICH ANY PARTICLE CANNOT MOVE MORE THAN ONE CELL
 =  12.92    (WHEN MIN. R.F.=1)  AT K=  17, I=   1, J=  90

 MAXIMUM STEPSIZE WHICH MEETS STABILITY CRITERION OF THE ADVECTION TERM
 (FOR PURE FINITE-DIFFERENCE OPTION, MIXELM=0) 
 =  8.064    (WHEN MIN. R.F.=1)  AT K=  16, I=   1, J=  90


 TOTAL NUMBER OF POINT SOURCES/SINKS PRESENT IN THE FLOW MODEL =    30

 MAXIMUM STEPSIZE WHICH MEETS STABILITY CRITERION OF THE SINK & SOURCE TERM
 =  12.30    (WHEN MIN. R.F.=1)  AT K=  17, I=   1, J=  91

 MAXIMUM STEPSIZE WHICH MEETS STABILITY CRITERION OF THE DISPERSION TERM
 =  4.054    (WHEN MIN. R.F.=1)  AT K=  17, I=   1, J=  90
     1 CALLS TO GCG PACKAGE FOR TRANSPORT TIME STEP 643 IN FLOW TIME STEP   1 STRESS PERIOD   1
     8 TOTAL ITERATIONS
     1 CALLS TO GCG PACKAGE FOR TRANSPORT TIME STEP 643 IN FLOW TIME STEP   1 STRESS PERIOD   1
     8 TOTAL ITERATIONS
 
 SOLVING FOR HEAD 


     2 CALLS TO PCG ROUTINE FOR TIME STEP   1 IN STRESS PERIOD    1
     8 TOTAL ITERATIONS

 MAXIMUM HEAD CHANGE FOR EACH ITERATION (1 INDICATES THE FIRST INNER ITERATION):

    HEAD CHANGE    HEAD CHANGE    HEAD CHANGE    HEAD CHANGE    HEAD CHANGE 
   LAYER,ROW,COL  LAYER,ROW,COL  LAYER,ROW,COL  LAYER,ROW,COL  LAYER,ROW,COL
 ---------------------------------------------------------------------------
  1 -0.1368E-01  0  0.4103E-02  0  0.4197E-02  0 -0.7620E-02  0 -0.7672E-02
   ( 15,  1, 86)  ( 17,  1, 89)  (  8,  1, 12)  ( 11,  1, 67)  ( 11,  1, 50)
  0  0.2086E-02  0 -0.7644E-03  1  0.8153E-03
   ( 11,  1, 53)  ( 11,  1, 53)  ( 11,  1, 53)

 MAXIMUM RESIDUAL FOR EACH ITERATION (1 INDICATES THE FIRST INNER ITERATION):

    RESIDUAL       RESIDUAL       RESIDUAL       RESIDUAL       RESIDUAL    
   LAYER,ROW,COL  LAYER,ROW,COL  LAYER,ROW,COL  LAYER,ROW,COL  LAYER,ROW,COL
 ---------------------------------------------------------------------------
  1 -0.1379E+06  0  0.9813E+05  0  0.9736E+05  0  0.2127E+05  0  -5045.    
   ( 21,  1, 89)  ( 19,  1, 89)  ( 19,  1, 89)  ( 19,  1, 89)  ( 17,  1, 88)
  0  -2817.      0  -2162.      1  -1879.    
   ( 22,  1, 87)  ( 22,  1, 87)  ( 22,  1, 87)


 FLOW MODEL IS TRANSIENT
 FLOW MODEL CONTAINS CONSTANT-HEAD CELLS


 MAXIMUM STEPSIZE DURING WHICH ANY PARTICLE CANNOT MOVE MORE THAN ONE CELL
 =  13.25    (WHEN MIN. R.F.=1)  AT K=  17, I=   1, J=  90

 MAXIMUM STEPSIZE WHICH MEETS STABILITY CRITERION OF THE ADVECTION TERM
 (FOR PURE FINITE-DIFFERENCE OPTION, MIXELM=0) 
 =  8.013    (WHEN MIN. R.F.=1)  AT K=  16, I=   1, J=  90


 TOTAL NUMBER OF POINT SOURCES/SINKS PRESENT IN THE FLOW MODEL =    30

 MAXIMUM STEPSIZE WHICH MEETS STABILITY CRITERION OF THE SINK & SOURCE TERM
 =  12.20    (WHEN MIN. R.F.=1)  AT K=  17, I=   1, J=  91

 MAXIMUM STEPSIZE WHICH MEETS STABILITY CRITERION OF THE DISPERSION TERM
 =  4.382    (WHEN MIN. R.F.=1)  AT K=  17, I=   1, J=  90
     1 CALLS TO GCG PACKAGE FOR TRANSPORT TIME STEP 644 IN FLOW TIME STEP   1 STRESS PERIOD   1
    10 TOTAL ITERATIONS
     1 CALLS TO GCG PACKAGE FOR TRANSPORT TIME STEP 644 IN FLOW TIME STEP   1 STRESS PERIOD   1
     8 TOTAL ITERATIONS
 
 SOLVING FOR HEAD 


     2 CALLS TO PCG ROUTINE FOR TIME STEP   1 IN STRESS PERIOD    1
     9 TOTAL ITERATIONS

 MAXIMUM HEAD CHANGE FOR EACH ITERATION (1 INDICATES THE FIRST INNER ITERATION):

    HEAD CHANGE    HEAD CHANGE    HEAD CHANGE    HEAD CHANGE    HEAD CHANGE 
   LAYER,ROW,COL  LAYER,ROW,COL  LAYER,ROW,COL  LAYER,ROW,COL  LAYER,ROW,COL
 ---------------------------------------------------------------------------
  1  0.1365E-01  0  0.4207E-02  0 -0.3091E-02  0 -0.1414E-01  0  0.1259E-01
   ( 15,  1, 86)  ( 11,  1, 54)  (  8,  1, 12)  ( 11,  1, 54)  ( 11,  1, 54)
  0  0.2086E-02  0 -0.1221E-02  0 -0.9971E-03  1  0.7655E-03
   ( 11,  1, 39)  ( 11,  1, 53)  ( 11,  1, 65)  ( 11,  1, 65)

 MAXIMUM RESIDUAL FOR EACH ITERATION (1 INDICATES THE FIRST INNER ITERATION):

    RESIDUAL       RESIDUAL       RESIDUAL       RESIDUAL       RESIDUAL    
   LAYER,ROW,COL  LAYER,ROW,COL  LAYER,ROW,COL  LAYER,ROW,COL  LAYER,ROW,COL
 ---------------------------------------------------------------------------
  1  0.1371E+06  0 -0.9798E+05  0 -0.9695E+05  0 -0.3941E+05  0  -5339.    
   ( 21,  1, 89)  ( 19,  1, 89)  ( 19,  1, 89)  ( 19,  1, 89)  ( 17,  1, 87)
  0   2778.      0   2584.      0   1185.      1   1052.    
   ( 17,  1, 88)  ( 22,  1, 87)  ( 22,  1, 87)  ( 22,  1, 87)


 FLOW MODEL IS TRANSIENT
 FLOW MODEL CONTAINS CONSTANT-HEAD CELLS


 MAXIMUM STEPSIZE DURING WHICH ANY PARTICLE CANNOT MOVE MORE THAN ONE CELL
 =  12.88    (WHEN MIN. R.F.=1)  AT K=  17, I=   1, J=  90

 MAXIMUM STEPSIZE WHICH MEETS STABILITY CRITERION OF THE ADVECTION TERM
 (FOR PURE FINITE-DIFFERENCE OPTION, MIXELM=0) 
 =  8.052    (WHEN MIN. R.F.=1)  AT K=  16, I=   1, J=  90


 TOTAL NUMBER OF POINT SOURCES/SINKS PRESENT IN THE FLOW MODEL =    30

 MAXIMUM STEPSIZE WHICH MEETS STABILITY CRITERION OF THE SINK & SOURCE TERM
 =  12.25    (WHEN MIN. R.F.=1)  AT K=  17, I=   1, J=  91

 MAXIMUM STEPSIZE WHICH MEETS STABILITY CRITERION OF THE DISPERSION TERM
 =  4.036    (WHEN MIN. R.F.=1)  AT K=  17, I=   1, J=  90
     1 CALLS TO GCG PACKAGE FOR TRANSPORT TIME STEP 645 IN FLOW TIME STEP   1 STRESS PERIOD   1
     8 TOTAL ITERATIONS
  MAXIMUM CONCENTRATION CHANGES FOR EACH ITERATION:
  MAX. CHANGE LAYER,ROW,COL MAX. CHANGE LAYER,ROW,COL MAX. CHANGE LAYER,ROW,COL MAX. CHANGE LAYER,ROW,COL MAX. CHANGE LAYER,ROW,COL
 ------------------------------------------------------------------------------------------------------------------------------------
   0.5211E-01 ( 20,  1, 87)  0.4300E-02 ( 19,  1, 89)  0.2089E-02 ( 17,  1, 86)  0.4996E-03 ( 20,  1, 89)  0.9503E-04 ( 16,  1, 89)
   0.2084E-04 ( 20,  1, 89)  0.2224E-04 ( 16,  1, 90)  0.6627E-06 ( 17,  1, 90)
     1 CALLS TO GCG PACKAGE FOR TRANSPORT TIME STEP 645 IN FLOW TIME STEP   1 STRESS PERIOD   1
     8 TOTAL ITERATIONS
  MAXIMUM CONCENTRATION CHANGES FOR EACH ITERATION:
  MAX. CHANGE LAYER,ROW,COL MAX. CHANGE LAYER,ROW,COL MAX. CHANGE LAYER,ROW,COL MAX. CHANGE LAYER,ROW,COL MAX. CHANGE LAYER,ROW,COL
 ------------------------------------------------------------------------------------------------------------------------------------
   0.5866E-01 ( 20,  1, 87)  0.4953E-02 ( 19,  1, 89)  0.2073E-02 ( 18,  1, 86)  0.4466E-03 ( 20,  1, 89)  0.1106E-03 ( 16,  1, 89)
   0.2063E-04 ( 23,  1, 87)  0.1857E-04 ( 16,  1, 90)  0.8508E-06 ( 17,  1, 90)
 
 SOLVING FOR HEAD 


     2 CALLS TO PCG ROUTINE FOR TIME STEP   1 IN STRESS PERIOD    1
     8 TOTAL ITERATIONS

 MAXIMUM HEAD CHANGE FOR EACH ITERATION (1 INDICATES THE FIRST INNER ITERATION):

    HEAD CHANGE    HEAD CHANGE    HEAD CHANGE    HEAD CHANGE    HEAD CHANGE 
   LAYER,ROW,COL  LAYER,ROW,COL  LAYER,ROW,COL  LAYER,ROW,COL  LAYER,ROW,COL
 ---------------------------------------------------------------------------
  1 -0.1368E-01  0 -0.4508E-02  0  0.4814E-02  0  0.9292E-02  0 -0.1050E-01
   ( 15,  1, 86)  (  8,  1, 12)  (  8,  1, 12)  ( 11,  1, 50)  ( 11,  1, 51)
  0  0.1767E-02  0  0.7013E-03  1  0.5677E-03
   ( 11,  1, 53)  ( 11,  1, 70)  ( 11,  1, 39)

 MAXIMUM RESIDUAL FOR EACH ITERATION (1 INDICATES THE FIRST INNER ITERATION):

    RESIDUAL       RESIDUAL       RESIDUAL       RESIDUAL       RESIDUAL    
   LAYER,ROW,COL  LAYER,ROW,COL  LAYER,ROW,COL  LAYER,ROW,COL  LAYER,ROW,COL
 ---------------------------------------------------------------------------
  1 -0.1365E+06  0  0.9648E+05  0  0.9586E+05  0  0.2248E+05  0   5260.    
   ( 21,  1, 89)  ( 19,  1, 89)  ( 19,  1, 89)  ( 19,  1, 89)  ( 17,  1, 87)
  0  -2845.      0  -2517.      1  -2092.    
   ( 22,  1, 87)  ( 22,  1, 87)  ( 22,  1, 87)


 FLOW MODEL IS TRANSIENT
 FLOW MODEL CONTAINS CONSTANT-HEAD CELLS


 MAXIMUM STEPSIZE DURING WHICH ANY PARTICLE CANNOT MOVE MORE THAN ONE CELL
 =  13.25    (WHEN MIN. R.F.=1)  AT K=  17, I=   1, J=  90

 MAXIMUM STEPSIZE WHICH MEETS STABILITY CRITERION OF THE ADVECTION TERM
 (FOR PURE FINITE-DIFFERENCE OPTION, MIXELM=0) 
 =  8.015    (WHEN MIN. R.F.=1)  AT K=  16, I=   1, J=  90


 TOTAL NUMBER OF POINT SOURCES/SINKS PRESENT IN THE FLOW MODEL =    30

 MAXIMUM STEPSIZE WHICH MEETS STABILITY CRITERION OF THE SINK & SOURCE TERM
 =  12.19    (WHEN MIN. R.F.=1)  AT K=  17, I=   1, J=  91

 MAXIMUM STEPSIZE WHICH MEETS STABILITY CRITERION OF THE DISPERSION TERM
 =  4.385    (WHEN MIN. R.F.=1)  AT K=  17, I=   1, J=  90
     1 CALLS TO GCG PACKAGE FOR TRANSPORT TIME STEP 646 IN FLOW TIME STEP   1 STRESS PERIOD   1
    10 TOTAL ITERATIONS
     1 CALLS TO GCG PACKAGE FOR TRANSPORT TIME STEP 646 IN FLOW TIME STEP   1 STRESS PERIOD   1
     8 TOTAL ITERATIONS
 
 SOLVING FOR HEAD 


     2 CALLS TO PCG ROUTINE FOR TIME STEP   1 IN STRESS PERIOD    1
     9 TOTAL ITERATIONS

 MAXIMUM HEAD CHANGE FOR EACH ITERATION (1 INDICATES THE FIRST INNER ITERATION):

    HEAD CHANGE    HEAD CHANGE    HEAD CHANGE    HEAD CHANGE    HEAD CHANGE 
   LAYER,ROW,COL  LAYER,ROW,COL  LAYER,ROW,COL  LAYER,ROW,COL  LAYER,ROW,COL
 ---------------------------------------------------------------------------
  1  0.1370E-01  0  0.5859E-02  0 -0.3593E-02  0  0.1054E-01  0 -0.7669E-02
   ( 15,  1, 86)  ( 11,  1, 39)  (  8,  1, 12)  (  8,  1, 45)  (  8,  1, 46)
  0 -0.3462E-02  0  0.1482E-02  0 -0.8599E-03  1  0.6178E-03
   ( 11,  1, 50)  ( 11,  1, 50)  ( 11,  1, 54)  ( 11,  1, 54)

 MAXIMUM RESIDUAL FOR EACH ITERATION (1 INDICATES THE FIRST INNER ITERATION):

    RESIDUAL       RESIDUAL       RESIDUAL       RESIDUAL       RESIDUAL    
   LAYER,ROW,COL  LAYER,ROW,COL  LAYER,ROW,COL  LAYER,ROW,COL  LAYER,ROW,COL
 ---------------------------------------------------------------------------
  1  0.1372E+06  0 -0.9788E+05  0 -0.9692E+05  0 -0.7501E+05  0  -6094.    
   ( 21,  1, 89)  ( 19,  1, 89)  ( 19,  1, 89)  ( 19,  1, 89)  ( 17,  1, 87)
  0   2982.      0   2585.      0   1305.      1   1153.    
   ( 17,  1, 88)  ( 22,  1, 87)  ( 22,  1, 87)  ( 22,  1, 87)


 FLOW MODEL IS TRANSIENT
 FLOW MODEL CONTAINS CONSTANT-HEAD CELLS


 MAXIMUM STEPSIZE DURING WHICH ANY PARTICLE CANNOT MOVE MORE THAN ONE CELL
 =  12.90    (WHEN MIN. R.F.=1)  AT K=  17, I=   1, J=  90

 MAXIMUM STEPSIZE WHICH MEETS STABILITY CRITERION OF THE ADVECTION TERM
 (FOR PURE FINITE-DIFFERENCE OPTION, MIXELM=0) 
 =  8.059    (WHEN MIN. R.F.=1)  AT K=  16, I=   1, J=  90


 TOTAL NUMBER OF POINT SOURCES/SINKS PRESENT IN THE FLOW MODEL =    30

 MAXIMUM STEPSIZE WHICH MEETS STABILITY CRITERION OF THE SINK & SOURCE TERM
 =  12.27    (WHEN MIN. R.F.=1)  AT K=  17, I=   1, J=  91

 MAXIMUM STEPSIZE WHICH MEETS STABILITY CRITERION OF THE DISPERSION TERM
 =  4.041    (WHEN MIN. R.F.=1)  AT K=  17, I=   1, J=  90
     1 CALLS TO GCG PACKAGE FOR TRANSPORT TIME STEP 647 IN FLOW TIME STEP   1 STRESS PERIOD   1
     8 TOTAL ITERATIONS
     1 CALLS TO GCG PACKAGE FOR TRANSPORT TIME STEP 647 IN FLOW TIME STEP   1 STRESS PERIOD   1
     8 TOTAL ITERATIONS
 
 SOLVING FOR HEAD 


     2 CALLS TO PCG ROUTINE FOR TIME STEP   1 IN STRESS PERIOD    1
     8 TOTAL ITERATIONS

 MAXIMUM HEAD CHANGE FOR EACH ITERATION (1 INDICATES THE FIRST INNER ITERATION):

    HEAD CHANGE    HEAD CHANGE    HEAD CHANGE    HEAD CHANGE    HEAD CHANGE 
   LAYER,ROW,COL  LAYER,ROW,COL  LAYER,ROW,COL  LAYER,ROW,COL  LAYER,ROW,COL
 ---------------------------------------------------------------------------
  1 -0.1375E-01  0 -0.5272E-02  0  0.5649E-02  0 -0.9109E-02  0 -0.8884E-02
   ( 15,  1, 86)  (  8,  1, 12)  (  8,  1, 12)  ( 11,  1, 54)  ( 11,  1, 69)
  0  0.2455E-02  0  0.6763E-03  1  0.4756E-03
   ( 11,  1, 67)  ( 11,  1, 70)  (  7,  1, 37)

 MAXIMUM RESIDUAL FOR EACH ITERATION (1 INDICATES THE FIRST INNER ITERATION):

    RESIDUAL       RESIDUAL       RESIDUAL       RESIDUAL       RESIDUAL    
   LAYER,ROW,COL  LAYER,ROW,COL  LAYER,ROW,COL  LAYER,ROW,COL  LAYER,ROW,COL
 ---------------------------------------------------------------------------
  1 -0.1373E+06  0  0.9728E+05  0  0.9682E+05  0  0.2339E+05  0  -5270.    
   ( 21,  1, 89)  ( 19,  1, 89)  ( 19,  1, 89)  ( 19,  1, 89)  ( 17,  1, 88)
  0  -2805.      0  -2536.      1  -1976.    
   ( 22,  1, 87)  ( 22,  1, 87)  ( 22,  1, 87)


 FLOW MODEL IS TRANSIENT
 FLOW MODEL CONTAINS CONSTANT-HEAD CELLS


 MAXIMUM STEPSIZE DURING WHICH ANY PARTICLE CANNOT MOVE MORE THAN ONE CELL
 =  13.26    (WHEN MIN. R.F.=1)  AT K=  17, I=   1, J=  90

 MAXIMUM STEPSIZE WHICH MEETS STABILITY CRITERION OF THE ADVECTION TERM
 (FOR PURE FINITE-DIFFERENCE OPTION, MIXELM=0) 
 =  8.016    (WHEN MIN. R.F.=1)  AT K=  16, I=   1, J=  90


 TOTAL NUMBER OF POINT SOURCES/SINKS PRESENT IN THE FLOW MODEL =    30

 MAXIMUM STEPSIZE WHICH MEETS STABILITY CRITERION OF THE SINK & SOURCE TERM
 =  12.19    (WHEN MIN. R.F.=1)  AT K=  17, I=   1, J=  91

 MAXIMUM STEPSIZE WHICH MEETS STABILITY CRITERION OF THE DISPERSION TERM
 =  4.391    (WHEN MIN. R.F.=1)  AT K=  17, I=   1, J=  90
     1 CALLS TO GCG PACKAGE FOR TRANSPORT TIME STEP 648 IN FLOW TIME STEP   1 STRESS PERIOD   1
    10 TOTAL ITERATIONS
     1 CALLS TO GCG PACKAGE FOR TRANSPORT TIME STEP 648 IN FLOW TIME STEP   1 STRESS PERIOD   1
     8 TOTAL ITERATIONS
 
 SOLVING FOR HEAD 


     2 CALLS TO PCG ROUTINE FOR TIME STEP   1 IN STRESS PERIOD    1
     9 TOTAL ITERATIONS

 MAXIMUM HEAD CHANGE FOR EACH ITERATION (1 INDICATES THE FIRST INNER ITERATION):

    HEAD CHANGE    HEAD CHANGE    HEAD CHANGE    HEAD CHANGE    HEAD CHANGE 
   LAYER,ROW,COL  LAYER,ROW,COL  LAYER,ROW,COL  LAYER,ROW,COL  LAYER,ROW,COL
 ---------------------------------------------------------------------------
  1  0.1363E-01  0  0.7497E-02  0 -0.2872E-02  0 -0.8346E-02  0  0.6586E-02
   ( 15,  1, 86)  (  7,  1, 38)  (  7,  1, 12)  (  9,  1, 41)  (  7,  1, 46)
  0 -0.4433E-02  0 -0.1042E-02  0 -0.9363E-03  1  0.6841E-03
   ( 11,  1, 69)  ( 11,  1, 57)  ( 11,  1, 65)  ( 11,  1, 64)

 MAXIMUM RESIDUAL FOR EACH ITERATION (1 INDICATES THE FIRST INNER ITERATION):

    RESIDUAL       RESIDUAL       RESIDUAL       RESIDUAL       RESIDUAL    
   LAYER,ROW,COL  LAYER,ROW,COL  LAYER,ROW,COL  LAYER,ROW,COL  LAYER,ROW,COL
 ---------------------------------------------------------------------------
  1  0.1378E+06  0 -0.9819E+05  0 -0.9686E+05  0 -0.7930E+05  0  -6554.    
   ( 21,  1, 89)  ( 19,  1, 89)  ( 19,  1, 89)  ( 19,  1, 89)  ( 17,  1, 87)
  0   3239.      0   2569.      0   1591.      1   1408.    
   ( 17,  1, 88)  ( 22,  1, 87)  ( 22,  1, 87)  ( 22,  1, 87)


 FLOW MODEL IS TRANSIENT
 FLOW MODEL CONTAINS CONSTANT-HEAD CELLS


 MAXIMUM STEPSIZE DURING WHICH ANY PARTICLE CANNOT MOVE MORE THAN ONE CELL
 =  12.89    (WHEN MIN. R.F.=1)  AT K=  17, I=   1, J=  90

 MAXIMUM STEPSIZE WHICH MEETS STABILITY CRITERION OF THE ADVECTION TERM
 (FOR PURE FINITE-DIFFERENCE OPTION, MIXELM=0) 
 =  8.056    (WHEN MIN. R.F.=1)  AT K=  16, I=   1, J=  90


 TOTAL NUMBER OF POINT SOURCES/SINKS PRESENT IN THE FLOW MODEL =    30

 MAXIMUM STEPSIZE WHICH MEETS STABILITY CRITERION OF THE SINK & SOURCE TERM
 =  12.26    (WHEN MIN. R.F.=1)  AT K=  17, I=   1, J=  91

 MAXIMUM STEPSIZE WHICH MEETS STABILITY CRITERION OF THE DISPERSION TERM
 =  4.038    (WHEN MIN. R.F.=1)  AT K=  17, I=   1, J=  90
     1 CALLS TO GCG PACKAGE FOR TRANSPORT TIME STEP 649 IN FLOW TIME STEP   1 STRESS PERIOD   1
     8 TOTAL ITERATIONS
     1 CALLS TO GCG PACKAGE FOR TRANSPORT TIME STEP 649 IN FLOW TIME STEP   1 STRESS PERIOD   1
     8 TOTAL ITERATIONS
 
 SOLVING FOR HEAD 


     2 CALLS TO PCG ROUTINE FOR TIME STEP   1 IN STRESS PERIOD    1
     9 TOTAL ITERATIONS

 MAXIMUM HEAD CHANGE FOR EACH ITERATION (1 INDICATES THE FIRST INNER ITERATION):

    HEAD CHANGE    HEAD CHANGE    HEAD CHANGE    HEAD CHANGE    HEAD CHANGE 
   LAYER,ROW,COL  LAYER,ROW,COL  LAYER,ROW,COL  LAYER,ROW,COL  LAYER,ROW,COL
 ---------------------------------------------------------------------------
  1 -0.1380E-01  0 -0.5142E-02  0  0.5556E-02  0  0.9996E-02  0 -0.1127E-01
   ( 15,  1, 86)  (  7,  1, 12)  (  8,  1, 12)  ( 11,  1, 52)  ( 11,  1, 52)
  0  0.2220E-02  0  0.1095E-02  0  0.6569E-03  1  0.3233E-03
   ( 11,  1, 53)  ( 11,  1, 70)  ( 11,  1, 41)  ( 11,  1, 68)

 MAXIMUM RESIDUAL FOR EACH ITERATION (1 INDICATES THE FIRST INNER ITERATION):

    RESIDUAL       RESIDUAL       RESIDUAL       RESIDUAL       RESIDUAL    
   LAYER,ROW,COL  LAYER,ROW,COL  LAYER,ROW,COL  LAYER,ROW,COL  LAYER,ROW,COL
 ---------------------------------------------------------------------------
  1 -0.1379E+06  0  0.9798E+05  0  0.9749E+05  0  0.2631E+05  0  -5333.    
   ( 21,  1, 89)  ( 19,  1, 89)  ( 19,  1, 89)  ( 19,  1, 89)  ( 17,  1, 88)
  0  -2786.      0  -2298.      0  -693.5      1  -610.6    
   ( 22,  1, 87)  ( 22,  1, 87)  ( 22,  1, 87)  ( 22,  1, 87)


 FLOW MODEL IS TRANSIENT
 FLOW MODEL CONTAINS CONSTANT-HEAD CELLS


 MAXIMUM STEPSIZE DURING WHICH ANY PARTICLE CANNOT MOVE MORE THAN ONE CELL
 =  13.23    (WHEN MIN. R.F.=1)  AT K=  17, I=   1, J=  90

 MAXIMUM STEPSIZE WHICH MEETS STABILITY CRITERION OF THE ADVECTION TERM
 (FOR PURE FINITE-DIFFERENCE OPTION, MIXELM=0) 
 =  8.006    (WHEN MIN. R.F.=1)  AT K=  16, I=   1, J=  90


 TOTAL NUMBER OF POINT SOURCES/SINKS PRESENT IN THE FLOW MODEL =    30

 MAXIMUM STEPSIZE WHICH MEETS STABILITY CRITERION OF THE SINK & SOURCE TERM
 =  12.17    (WHEN MIN. R.F.=1)  AT K=  17, I=   1, J=  91

 MAXIMUM STEPSIZE WHICH MEETS STABILITY CRITERION OF THE DISPERSION TERM
 =  4.385    (WHEN MIN. R.F.=1)  AT K=  17, I=   1, J=  90
     1 CALLS TO GCG PACKAGE FOR TRANSPORT TIME STEP 650 IN FLOW TIME STEP   1 STRESS PERIOD   1
     9 TOTAL ITERATIONS
  MAXIMUM CONCENTRATION CHANGES FOR EACH ITERATION:
  MAX. CHANGE LAYER,ROW,COL MAX. CHANGE LAYER,ROW,COL MAX. CHANGE LAYER,ROW,COL MAX. CHANGE LAYER,ROW,COL MAX. CHANGE LAYER,ROW,COL
 ------------------------------------------------------------------------------------------------------------------------------------
   0.4901E-01 ( 20,  1, 87)  0.3343E-02 ( 19,  1, 87)  0.2247E-02 ( 18,  1, 87)  0.2179E-03 ( 16,  1, 88)  0.1405E-03 ( 17,  1, 89)
   0.3123E-04 ( 16,  1, 90)  0.2388E-04 ( 21,  1, 78)  0.1957E-04 ( 21,  1, 78)  0.7617E-06 ( 16,  1, 89)
     1 CALLS TO GCG PACKAGE FOR TRANSPORT TIME STEP 650 IN FLOW TIME STEP   1 STRESS PERIOD   1
     8 TOTAL ITERATIONS
  MAXIMUM CONCENTRATION CHANGES FOR EACH ITERATION:
  MAX. CHANGE LAYER,ROW,COL MAX. CHANGE LAYER,ROW,COL MAX. CHANGE LAYER,ROW,COL MAX. CHANGE LAYER,ROW,COL MAX. CHANGE LAYER,ROW,COL
 ------------------------------------------------------------------------------------------------------------------------------------
   0.5428E-01 ( 20,  1, 87)  0.3757E-02 ( 19,  1, 87)  0.2333E-02 ( 18,  1, 87)  0.2245E-03 ( 16,  1, 88)  0.1389E-03 ( 17,  1, 89)
   0.3641E-04 ( 16,  1, 90)  0.5016E-05 ( 17,  1, 90)  0.6282E-06 ( 16,  1, 89)



 >>>>>>>>>>>>>>>>>>>>>>>>>>>>>>>>>>>>>>>>>>>>>>>>>>>>>>>FOR COMPONENT NO. 01<<<<<<<<<<<<<<<<<<<<<<<<<<<<<<<<<<<<<<<<<<<<<<<<<<<<<<<


                                            -------------------------------------------
                                                      TRANSPORT STEP NO.  650
                                            -------------------------------------------

 TOTAL ELAPSED TIME SINCE BEGINNING OF SIMULATION =   32500.00    D   
 .....................................................................

                     CUMMULATIVE MASS BUDGETS AT END OF TRANSPORT STEP  650, TIME STEP    1, STRESS PERIOD    1
                     ------------------------------------------------------------------------------------------

                                                             IN                           OUT
                                                      ----------------             ----------------
                               CONSTANT CONCENTRATION:    0.000000                    0.000000    
                                        CONSTANT HEAD:   0.1285985E+10              -0.1285778E+10
                                                WELLS:    0.000000                    0.000000    
                                             RECHARGE:    0.000000                    0.000000    
                               1ST/0TH ORDER REACTION:    0.000000                    0.000000    
                                MASS STORAGE (SOLUTE):   0.1797915E+09              -0.1799984E+09
                            ---------------------------------------------------------------------------
                                              [TOTAL]:   0.1465778E+10 KG           -0.1465778E+10 KG  

                                                          NET (IN - OUT):   -237.3859    
                                                   DISCREPANCY (PERCENT):  -0.1619522E-04



 >>>>>>>>>>>>>>>>>>>>>>>>>>>>>>>>>>>>>>>>>>>>>>>>>>>>>>>FOR COMPONENT NO. 02<<<<<<<<<<<<<<<<<<<<<<<<<<<<<<<<<<<<<<<<<<<<<<<<<<<<<<<


                                            -------------------------------------------
                                                      TRANSPORT STEP NO.  650
                                            -------------------------------------------

 TOTAL ELAPSED TIME SINCE BEGINNING OF SIMULATION =   32500.00    D   
 .....................................................................

                     CUMMULATIVE MASS BUDGETS AT END OF TRANSPORT STEP  650, TIME STEP    1, STRESS PERIOD    1
                     ------------------------------------------------------------------------------------------

                                                             IN                           OUT
                                                      ----------------             ----------------
                               CONSTANT CONCENTRATION:    0.000000                    0.000000    
                                        CONSTANT HEAD:    0.000000                  -0.2325384E+12
                                                WELLS:    0.000000                    0.000000    
                                             RECHARGE:    0.000000                    0.000000    
                               1ST/0TH ORDER REACTION:   0.5378750E+12                0.000000    
                                MASS STORAGE (SOLUTE):   0.8134648E+11              -0.3866832E+12
                            ---------------------------------------------------------------------------
                                              [TOTAL]:   0.6192226E+12 KG           -0.6192227E+12 KG  

                                                          NET (IN - OUT):   -80197.81    
                                                   DISCREPANCY (PERCENT):  -0.1295137E-04
 
 SOLVING FOR HEAD 


     2 CALLS TO PCG ROUTINE FOR TIME STEP   1 IN STRESS PERIOD    1
     9 TOTAL ITERATIONS

 MAXIMUM HEAD CHANGE FOR EACH ITERATION (1 INDICATES THE FIRST INNER ITERATION):

    HEAD CHANGE    HEAD CHANGE    HEAD CHANGE    HEAD CHANGE    HEAD CHANGE 
   LAYER,ROW,COL  LAYER,ROW,COL  LAYER,ROW,COL  LAYER,ROW,COL  LAYER,ROW,COL
 ---------------------------------------------------------------------------
  1  0.1332E-01  0 -0.3891E-02  0 -0.3851E-02  0 -0.6212E-02  0  0.8824E-02
   ( 15,  1, 86)  ( 17,  1, 89)  (  7,  1, 12)  ( 11,  1, 66)  (  7,  1, 49)
  0  0.1451E-02  0 -0.1045E-02  0 -0.8333E-03  1  0.6678E-03
   ( 11,  1, 52)  ( 11,  1, 53)  ( 11,  1, 60)  ( 11,  1, 66)

 MAXIMUM RESIDUAL FOR EACH ITERATION (1 INDICATES THE FIRST INNER ITERATION):

    RESIDUAL       RESIDUAL       RESIDUAL       RESIDUAL       RESIDUAL    
   LAYER,ROW,COL  LAYER,ROW,COL  LAYER,ROW,COL  LAYER,ROW,COL  LAYER,ROW,COL
 ---------------------------------------------------------------------------
  1  0.1361E+06  0 -0.9639E+05  0 -0.8443E+05  0 -0.3655E+05  0  -6149.    
   ( 21,  1, 89)  ( 19,  1, 89)  ( 19,  1, 89)  ( 19,  1, 89)  ( 17,  1, 87)
  0   2833.      0   2443.      0   820.9      1   677.0    
   ( 22,  1, 87)  ( 22,  1, 87)  ( 22,  1, 87)  ( 22,  1, 87)


 FLOW MODEL IS TRANSIENT
 FLOW MODEL CONTAINS CONSTANT-HEAD CELLS


 MAXIMUM STEPSIZE DURING WHICH ANY PARTICLE CANNOT MOVE MORE THAN ONE CELL
 =  12.84    (WHEN MIN. R.F.=1)  AT K=  17, I=   1, J=  90

 MAXIMUM STEPSIZE WHICH MEETS STABILITY CRITERION OF THE ADVECTION TERM
 (FOR PURE FINITE-DIFFERENCE OPTION, MIXELM=0) 
 =  8.034    (WHEN MIN. R.F.=1)  AT K=  16, I=   1, J=  90


 TOTAL NUMBER OF POINT SOURCES/SINKS PRESENT IN THE FLOW MODEL =    30

 MAXIMUM STEPSIZE WHICH MEETS STABILITY CRITERION OF THE SINK & SOURCE TERM
 =  12.19    (WHEN MIN. R.F.=1)  AT K=  17, I=   1, J=  91

 MAXIMUM STEPSIZE WHICH MEETS STABILITY CRITERION OF THE DISPERSION TERM
 =  4.023    (WHEN MIN. R.F.=1)  AT K=  17, I=   1, J=  90
     1 CALLS TO GCG PACKAGE FOR TRANSPORT TIME STEP 651 IN FLOW TIME STEP   1 STRESS PERIOD   1
     8 TOTAL ITERATIONS
     1 CALLS TO GCG PACKAGE FOR TRANSPORT TIME STEP 651 IN FLOW TIME STEP   1 STRESS PERIOD   1
     8 TOTAL ITERATIONS
 
 SOLVING FOR HEAD 


     2 CALLS TO PCG ROUTINE FOR TIME STEP   1 IN STRESS PERIOD    1
     9 TOTAL ITERATIONS

 MAXIMUM HEAD CHANGE FOR EACH ITERATION (1 INDICATES THE FIRST INNER ITERATION):

    HEAD CHANGE    HEAD CHANGE    HEAD CHANGE    HEAD CHANGE    HEAD CHANGE 
   LAYER,ROW,COL  LAYER,ROW,COL  LAYER,ROW,COL  LAYER,ROW,COL  LAYER,ROW,COL
 ---------------------------------------------------------------------------
  1 -0.1345E-01  0  0.3757E-02  0  0.3629E-02  0 -0.6740E-02  0 -0.8033E-02
   ( 15,  1, 86)  ( 17,  1, 89)  (  8,  1, 12)  ( 11,  1, 63)  ( 11,  1, 51)
  0  0.2274E-02  0  0.1439E-02  0  0.7109E-03  1 -0.4764E-03
   ( 11,  1, 52)  ( 11,  1, 70)  ( 11,  1, 53)  ( 11,  1, 70)

 MAXIMUM RESIDUAL FOR EACH ITERATION (1 INDICATES THE FIRST INNER ITERATION):

    RESIDUAL       RESIDUAL       RESIDUAL       RESIDUAL       RESIDUAL    
   LAYER,ROW,COL  LAYER,ROW,COL  LAYER,ROW,COL  LAYER,ROW,COL  LAYER,ROW,COL
 ---------------------------------------------------------------------------
  1 -0.1341E+06  0  0.9432E+05  0  0.9349E+05  0  0.1973E+05  0   4686.    
   ( 21,  1, 89)  ( 19,  1, 89)  ( 19,  1, 89)  ( 19,  1, 89)  ( 17,  1, 87)
  0  -2787.      0  -2257.      0  -733.9      1  -635.9    
   ( 22,  1, 87)  ( 22,  1, 87)  ( 22,  1, 87)  ( 22,  1, 87)


 FLOW MODEL IS TRANSIENT
 FLOW MODEL CONTAINS CONSTANT-HEAD CELLS


 MAXIMUM STEPSIZE DURING WHICH ANY PARTICLE CANNOT MOVE MORE THAN ONE CELL
 =  13.22    (WHEN MIN. R.F.=1)  AT K=  17, I=   1, J=  90

 MAXIMUM STEPSIZE WHICH MEETS STABILITY CRITERION OF THE ADVECTION TERM
 (FOR PURE FINITE-DIFFERENCE OPTION, MIXELM=0) 
 =  8.005    (WHEN MIN. R.F.=1)  AT K=  16, I=   1, J=  90


 TOTAL NUMBER OF POINT SOURCES/SINKS PRESENT IN THE FLOW MODEL =    30

 MAXIMUM STEPSIZE WHICH MEETS STABILITY CRITERION OF THE SINK & SOURCE TERM
 =  12.17    (WHEN MIN. R.F.=1)  AT K=  17, I=   1, J=  91

 MAXIMUM STEPSIZE WHICH MEETS STABILITY CRITERION OF THE DISPERSION TERM
 =  4.372    (WHEN MIN. R.F.=1)  AT K=  17, I=   1, J=  90
     1 CALLS TO GCG PACKAGE FOR TRANSPORT TIME STEP 652 IN FLOW TIME STEP   1 STRESS PERIOD   1
     9 TOTAL ITERATIONS
     1 CALLS TO GCG PACKAGE FOR TRANSPORT TIME STEP 652 IN FLOW TIME STEP   1 STRESS PERIOD   1
     8 TOTAL ITERATIONS
 
 SOLVING FOR HEAD 


     2 CALLS TO PCG ROUTINE FOR TIME STEP   1 IN STRESS PERIOD    1
     8 TOTAL ITERATIONS

 MAXIMUM HEAD CHANGE FOR EACH ITERATION (1 INDICATES THE FIRST INNER ITERATION):

    HEAD CHANGE    HEAD CHANGE    HEAD CHANGE    HEAD CHANGE    HEAD CHANGE 
   LAYER,ROW,COL  LAYER,ROW,COL  LAYER,ROW,COL  LAYER,ROW,COL  LAYER,ROW,COL
 ---------------------------------------------------------------------------
  1  0.1344E-01  0 -0.3696E-02  0 -0.2652E-02  0 -0.1009E-01  0  0.1005E-01
   ( 15,  1, 86)  ( 17,  1, 89)  (  8,  1, 12)  ( 11,  1, 66)  ( 11,  1, 67)
  0  0.1180E-02  0 -0.8974E-03  1 -0.6502E-03
   ( 11,  1, 35)  ( 11,  1, 66)  ( 11,  1, 59)

 MAXIMUM RESIDUAL FOR EACH ITERATION (1 INDICATES THE FIRST INNER ITERATION):

    RESIDUAL       RESIDUAL       RESIDUAL       RESIDUAL       RESIDUAL    
   LAYER,ROW,COL  LAYER,ROW,COL  LAYER,ROW,COL  LAYER,ROW,COL  LAYER,ROW,COL
 ---------------------------------------------------------------------------
  1  0.1317E+06  0 -0.9191E+05  0 -0.8823E+05  0 -0.3048E+05  0  -5866.    
   ( 21,  1, 89)  ( 19,  1, 89)  ( 19,  1, 89)  ( 19,  1, 89)  ( 17,  1, 87)
  0   2895.      0   2606.      1   2047.    
   ( 22,  1, 87)  ( 22,  1, 87)  ( 22,  1, 87)


 FLOW MODEL IS TRANSIENT
 FLOW MODEL CONTAINS CONSTANT-HEAD CELLS


 MAXIMUM STEPSIZE DURING WHICH ANY PARTICLE CANNOT MOVE MORE THAN ONE CELL
 =  12.85    (WHEN MIN. R.F.=1)  AT K=  17, I=   1, J=  90

 MAXIMUM STEPSIZE WHICH MEETS STABILITY CRITERION OF THE ADVECTION TERM
 (FOR PURE FINITE-DIFFERENCE OPTION, MIXELM=0) 
 =  8.029    (WHEN MIN. R.F.=1)  AT K=  16, I=   1, J=  90


 TOTAL NUMBER OF POINT SOURCES/SINKS PRESENT IN THE FLOW MODEL =    30

 MAXIMUM STEPSIZE WHICH MEETS STABILITY CRITERION OF THE SINK & SOURCE TERM
 =  12.19    (WHEN MIN. R.F.=1)  AT K=  17, I=   1, J=  91

 MAXIMUM STEPSIZE WHICH MEETS STABILITY CRITERION OF THE DISPERSION TERM
 =  4.029    (WHEN MIN. R.F.=1)  AT K=  17, I=   1, J=  90
     1 CALLS TO GCG PACKAGE FOR TRANSPORT TIME STEP 653 IN FLOW TIME STEP   1 STRESS PERIOD   1
     8 TOTAL ITERATIONS
     1 CALLS TO GCG PACKAGE FOR TRANSPORT TIME STEP 653 IN FLOW TIME STEP   1 STRESS PERIOD   1
     8 TOTAL ITERATIONS
 
 SOLVING FOR HEAD 


     2 CALLS TO PCG ROUTINE FOR TIME STEP   1 IN STRESS PERIOD    1
     9 TOTAL ITERATIONS

 MAXIMUM HEAD CHANGE FOR EACH ITERATION (1 INDICATES THE FIRST INNER ITERATION):

    HEAD CHANGE    HEAD CHANGE    HEAD CHANGE    HEAD CHANGE    HEAD CHANGE 
   LAYER,ROW,COL  LAYER,ROW,COL  LAYER,ROW,COL  LAYER,ROW,COL  LAYER,ROW,COL
 ---------------------------------------------------------------------------
  1 -0.1367E-01  0 -0.7778E-02  0  0.3992E-02  0  0.9046E-02  0 -0.7001E-02
   ( 15,  1, 86)  (  7,  1, 38)  (  7,  1, 12)  (  8,  1, 40)  (  8,  1, 43)
  0  0.3643E-02  0 -0.1005E-02  0 -0.7125E-03  1  0.7479E-03
   ( 11,  1, 67)  ( 11,  1, 67)  ( 11,  1, 53)  ( 11,  1, 53)

 MAXIMUM RESIDUAL FOR EACH ITERATION (1 INDICATES THE FIRST INNER ITERATION):

    RESIDUAL       RESIDUAL       RESIDUAL       RESIDUAL       RESIDUAL    
   LAYER,ROW,COL  LAYER,ROW,COL  LAYER,ROW,COL  LAYER,ROW,COL  LAYER,ROW,COL
 ---------------------------------------------------------------------------
  1 -0.1364E+06  0  0.9696E+05  0  0.9615E+05  0  0.7602E+05  0   6245.    
   ( 21,  1, 89)  ( 19,  1, 89)  ( 19,  1, 89)  ( 19,  1, 89)  ( 17,  1, 87)
  0  -3086.      0  -2569.      0  -1673.      1  -1481.    
   ( 17,  1, 88)  ( 22,  1, 87)  ( 22,  1, 87)  ( 22,  1, 87)


 FLOW MODEL IS TRANSIENT
 FLOW MODEL CONTAINS CONSTANT-HEAD CELLS


 MAXIMUM STEPSIZE DURING WHICH ANY PARTICLE CANNOT MOVE MORE THAN ONE CELL
 =  13.15    (WHEN MIN. R.F.=1)  AT K=  17, I=   1, J=  90

 MAXIMUM STEPSIZE WHICH MEETS STABILITY CRITERION OF THE ADVECTION TERM
 (FOR PURE FINITE-DIFFERENCE OPTION, MIXELM=0) 
 =  7.975    (WHEN MIN. R.F.=1)  AT K=  16, I=   1, J=  90


 TOTAL NUMBER OF POINT SOURCES/SINKS PRESENT IN THE FLOW MODEL =    30

 MAXIMUM STEPSIZE WHICH MEETS STABILITY CRITERION OF THE SINK & SOURCE TERM
 =  12.08    (WHEN MIN. R.F.=1)  AT K=  17, I=   1, J=  91

 MAXIMUM STEPSIZE WHICH MEETS STABILITY CRITERION OF THE DISPERSION TERM
 =  4.337    (WHEN MIN. R.F.=1)  AT K=  17, I=   1, J=  90
     1 CALLS TO GCG PACKAGE FOR TRANSPORT TIME STEP 654 IN FLOW TIME STEP   1 STRESS PERIOD   1
     8 TOTAL ITERATIONS
     1 CALLS TO GCG PACKAGE FOR TRANSPORT TIME STEP 654 IN FLOW TIME STEP   1 STRESS PERIOD   1
     8 TOTAL ITERATIONS
 
 SOLVING FOR HEAD 


     2 CALLS TO PCG ROUTINE FOR TIME STEP   1 IN STRESS PERIOD    1
     8 TOTAL ITERATIONS

 MAXIMUM HEAD CHANGE FOR EACH ITERATION (1 INDICATES THE FIRST INNER ITERATION):

    HEAD CHANGE    HEAD CHANGE    HEAD CHANGE    HEAD CHANGE    HEAD CHANGE 
   LAYER,ROW,COL  LAYER,ROW,COL  LAYER,ROW,COL  LAYER,ROW,COL  LAYER,ROW,COL
 ---------------------------------------------------------------------------
  1  0.1383E-01  0 -0.4197E-02  0 -0.3924E-02  0 -0.1273E-01  0  0.1351E-01
   ( 15,  1, 86)  ( 17,  1, 89)  (  8,  1, 12)  ( 11,  1, 53)  ( 11,  1, 53)
  0 -0.1692E-02  0 -0.6991E-03  1 -0.5384E-03
   ( 11,  1, 50)  ( 11,  1, 70)  ( 11,  1, 41)

 MAXIMUM RESIDUAL FOR EACH ITERATION (1 INDICATES THE FIRST INNER ITERATION):

    RESIDUAL       RESIDUAL       RESIDUAL       RESIDUAL       RESIDUAL    
   LAYER,ROW,COL  LAYER,ROW,COL  LAYER,ROW,COL  LAYER,ROW,COL  LAYER,ROW,COL
 ---------------------------------------------------------------------------
  1  0.1343E+06  0 -0.9570E+05  0 -0.9492E+05  0 -0.2527E+05  0   5258.    
   ( 21,  1, 89)  ( 19,  1, 89)  ( 19,  1, 89)  ( 19,  1, 89)  ( 17,  1, 88)
  0   2760.      0   2500.      1   1956.    
   ( 22,  1, 87)  ( 22,  1, 87)  ( 22,  1, 87)


 FLOW MODEL IS TRANSIENT
 FLOW MODEL CONTAINS CONSTANT-HEAD CELLS


 MAXIMUM STEPSIZE DURING WHICH ANY PARTICLE CANNOT MOVE MORE THAN ONE CELL
 =  12.84    (WHEN MIN. R.F.=1)  AT K=  17, I=   1, J=  90

 MAXIMUM STEPSIZE WHICH MEETS STABILITY CRITERION OF THE ADVECTION TERM
 (FOR PURE FINITE-DIFFERENCE OPTION, MIXELM=0) 
 =  8.031    (WHEN MIN. R.F.=1)  AT K=  16, I=   1, J=  90


 TOTAL NUMBER OF POINT SOURCES/SINKS PRESENT IN THE FLOW MODEL =    30

 MAXIMUM STEPSIZE WHICH MEETS STABILITY CRITERION OF THE SINK & SOURCE TERM
 =  12.19    (WHEN MIN. R.F.=1)  AT K=  17, I=   1, J=  91

 MAXIMUM STEPSIZE WHICH MEETS STABILITY CRITERION OF THE DISPERSION TERM
 =  4.022    (WHEN MIN. R.F.=1)  AT K=  17, I=   1, J=  90
     1 CALLS TO GCG PACKAGE FOR TRANSPORT TIME STEP 655 IN FLOW TIME STEP   1 STRESS PERIOD   1
     8 TOTAL ITERATIONS
  MAXIMUM CONCENTRATION CHANGES FOR EACH ITERATION:
  MAX. CHANGE LAYER,ROW,COL MAX. CHANGE LAYER,ROW,COL MAX. CHANGE LAYER,ROW,COL MAX. CHANGE LAYER,ROW,COL MAX. CHANGE LAYER,ROW,COL
 ------------------------------------------------------------------------------------------------------------------------------------
   0.5181E-01 ( 20,  1, 87)  0.4277E-02 ( 19,  1, 89)  0.2049E-02 ( 17,  1, 86)  0.4806E-03 ( 20,  1, 89)  0.9020E-04 ( 16,  1, 89)
   0.2120E-04 ( 20,  1, 89)  0.2160E-04 ( 16,  1, 90)  0.6141E-06 ( 17,  1, 90)
     1 CALLS TO GCG PACKAGE FOR TRANSPORT TIME STEP 655 IN FLOW TIME STEP   1 STRESS PERIOD   1
     8 TOTAL ITERATIONS
  MAXIMUM CONCENTRATION CHANGES FOR EACH ITERATION:
  MAX. CHANGE LAYER,ROW,COL MAX. CHANGE LAYER,ROW,COL MAX. CHANGE LAYER,ROW,COL MAX. CHANGE LAYER,ROW,COL MAX. CHANGE LAYER,ROW,COL
 ------------------------------------------------------------------------------------------------------------------------------------
   0.5879E-01 ( 20,  1, 87)  0.4917E-02 ( 19,  1, 89)  0.2045E-02 ( 18,  1, 86)  0.4234E-03 ( 20,  1, 89)  0.1078E-03 ( 16,  1, 89)
   0.1952E-04 ( 23,  1, 87)  0.1789E-04 ( 16,  1, 90)  0.8265E-06 ( 17,  1, 90)
 
 SOLVING FOR HEAD 


     2 CALLS TO PCG ROUTINE FOR TIME STEP   1 IN STRESS PERIOD    1
     9 TOTAL ITERATIONS

 MAXIMUM HEAD CHANGE FOR EACH ITERATION (1 INDICATES THE FIRST INNER ITERATION):

    HEAD CHANGE    HEAD CHANGE    HEAD CHANGE    HEAD CHANGE    HEAD CHANGE 
   LAYER,ROW,COL  LAYER,ROW,COL  LAYER,ROW,COL  LAYER,ROW,COL  LAYER,ROW,COL
 ---------------------------------------------------------------------------
  1 -0.1362E-01  0 -0.6671E-02  0  0.5055E-02  0 -0.9820E-02  0  0.6649E-02
   ( 15,  1, 86)  ( 11,  1, 40)  (  8,  1, 12)  (  7,  1, 47)  (  7,  1, 47)
  0  0.4111E-02  0 -0.1391E-02  0  0.6484E-03  1 -0.4747E-03
   ( 11,  1, 53)  ( 11,  1, 52)  ( 11,  1, 50)  ( 11,  1, 49)

 MAXIMUM RESIDUAL FOR EACH ITERATION (1 INDICATES THE FIRST INNER ITERATION):

    RESIDUAL       RESIDUAL       RESIDUAL       RESIDUAL       RESIDUAL    
   LAYER,ROW,COL  LAYER,ROW,COL  LAYER,ROW,COL  LAYER,ROW,COL  LAYER,ROW,COL
 ---------------------------------------------------------------------------
  1 -0.1331E+06  0  0.9373E+05  0  0.9318E+05  0  0.7544E+05  0   6522.    
   ( 21,  1, 89)  ( 19,  1, 89)  ( 19,  1, 89)  ( 19,  1, 89)  ( 17,  1, 87)
  0  -3112.      0  -2599.      0  -1125.      1  -1007.    
   ( 17,  1, 88)  ( 22,  1, 87)  ( 22,  1, 87)  ( 22,  1, 87)


 FLOW MODEL IS TRANSIENT
 FLOW MODEL CONTAINS CONSTANT-HEAD CELLS


 MAXIMUM STEPSIZE DURING WHICH ANY PARTICLE CANNOT MOVE MORE THAN ONE CELL
 =  13.19    (WHEN MIN. R.F.=1)  AT K=  17, I=   1, J=  90

 MAXIMUM STEPSIZE WHICH MEETS STABILITY CRITERION OF THE ADVECTION TERM
 (FOR PURE FINITE-DIFFERENCE OPTION, MIXELM=0) 
 =  7.988    (WHEN MIN. R.F.=1)  AT K=  16, I=   1, J=  90


 TOTAL NUMBER OF POINT SOURCES/SINKS PRESENT IN THE FLOW MODEL =    30

 MAXIMUM STEPSIZE WHICH MEETS STABILITY CRITERION OF THE SINK & SOURCE TERM
 =  12.13    (WHEN MIN. R.F.=1)  AT K=  17, I=   1, J=  91

 MAXIMUM STEPSIZE WHICH MEETS STABILITY CRITERION OF THE DISPERSION TERM
 =  4.364    (WHEN MIN. R.F.=1)  AT K=  17, I=   1, J=  90
     1 CALLS TO GCG PACKAGE FOR TRANSPORT TIME STEP 656 IN FLOW TIME STEP   1 STRESS PERIOD   1
    10 TOTAL ITERATIONS
     1 CALLS TO GCG PACKAGE FOR TRANSPORT TIME STEP 656 IN FLOW TIME STEP   1 STRESS PERIOD   1
     8 TOTAL ITERATIONS
 
 SOLVING FOR HEAD 


     2 CALLS TO PCG ROUTINE FOR TIME STEP   1 IN STRESS PERIOD    1
     8 TOTAL ITERATIONS

 MAXIMUM HEAD CHANGE FOR EACH ITERATION (1 INDICATES THE FIRST INNER ITERATION):

    HEAD CHANGE    HEAD CHANGE    HEAD CHANGE    HEAD CHANGE    HEAD CHANGE 
   LAYER,ROW,COL  LAYER,ROW,COL  LAYER,ROW,COL  LAYER,ROW,COL  LAYER,ROW,COL
 ---------------------------------------------------------------------------
  1  0.1350E-01  0 -0.4110E-02  0 -0.3225E-02  0  0.8924E-02  0 -0.9490E-02
   ( 15,  1, 86)  ( 17,  1, 89)  (  8,  1, 12)  ( 11,  1, 52)  ( 11,  1, 52)
  0 -0.2010E-02  0 -0.5644E-03  1 -0.4917E-03
   ( 11,  1, 68)  ( 11,  1, 70)  (  7,  1, 41)

 MAXIMUM RESIDUAL FOR EACH ITERATION (1 INDICATES THE FIRST INNER ITERATION):

    RESIDUAL       RESIDUAL       RESIDUAL       RESIDUAL       RESIDUAL    
   LAYER,ROW,COL  LAYER,ROW,COL  LAYER,ROW,COL  LAYER,ROW,COL  LAYER,ROW,COL
 ---------------------------------------------------------------------------
  1  0.1351E+06  0 -0.9592E+05  0 -0.9497E+05  0 -0.2307E+05  0   5343.    
   ( 21,  1, 89)  ( 19,  1, 89)  ( 19,  1, 89)  ( 19,  1, 89)  ( 17,  1, 88)
  0   2753.      0   2322.      1   2037.    
   ( 22,  1, 87)  ( 22,  1, 87)  ( 22,  1, 87)


 FLOW MODEL IS TRANSIENT
 FLOW MODEL CONTAINS CONSTANT-HEAD CELLS


 MAXIMUM STEPSIZE DURING WHICH ANY PARTICLE CANNOT MOVE MORE THAN ONE CELL
 =  12.83    (WHEN MIN. R.F.=1)  AT K=  17, I=   1, J=  90

 MAXIMUM STEPSIZE WHICH MEETS STABILITY CRITERION OF THE ADVECTION TERM
 (FOR PURE FINITE-DIFFERENCE OPTION, MIXELM=0) 
 =  8.027    (WHEN MIN. R.F.=1)  AT K=  16, I=   1, J=  90


 TOTAL NUMBER OF POINT SOURCES/SINKS PRESENT IN THE FLOW MODEL =    30

 MAXIMUM STEPSIZE WHICH MEETS STABILITY CRITERION OF THE SINK & SOURCE TERM
 =  12.19    (WHEN MIN. R.F.=1)  AT K=  17, I=   1, J=  91

 MAXIMUM STEPSIZE WHICH MEETS STABILITY CRITERION OF THE DISPERSION TERM
 =  4.019    (WHEN MIN. R.F.=1)  AT K=  17, I=   1, J=  90
     1 CALLS TO GCG PACKAGE FOR TRANSPORT TIME STEP 657 IN FLOW TIME STEP   1 STRESS PERIOD   1
     8 TOTAL ITERATIONS
     1 CALLS TO GCG PACKAGE FOR TRANSPORT TIME STEP 657 IN FLOW TIME STEP   1 STRESS PERIOD   1
     8 TOTAL ITERATIONS
 
 SOLVING FOR HEAD 


     2 CALLS TO PCG ROUTINE FOR TIME STEP   1 IN STRESS PERIOD    1
     8 TOTAL ITERATIONS

 MAXIMUM HEAD CHANGE FOR EACH ITERATION (1 INDICATES THE FIRST INNER ITERATION):

    HEAD CHANGE    HEAD CHANGE    HEAD CHANGE    HEAD CHANGE    HEAD CHANGE 
   LAYER,ROW,COL  LAYER,ROW,COL  LAYER,ROW,COL  LAYER,ROW,COL  LAYER,ROW,COL
 ---------------------------------------------------------------------------
  1 -0.1371E-01  0 -0.6084E-02  0  0.4478E-02  0  0.9630E-02  0 -0.7705E-02
   ( 15,  1, 86)  (  5,  1, 40)  (  7,  1, 12)  (  9,  1, 45)  (  6,  1, 46)
  0  0.2590E-02  0  0.8042E-03  1  0.5079E-03
   ( 11,  1, 69)  ( 11,  1, 49)  ( 11,  1, 67)

 MAXIMUM RESIDUAL FOR EACH ITERATION (1 INDICATES THE FIRST INNER ITERATION):

    RESIDUAL       RESIDUAL       RESIDUAL       RESIDUAL       RESIDUAL    
   LAYER,ROW,COL  LAYER,ROW,COL  LAYER,ROW,COL  LAYER,ROW,COL  LAYER,ROW,COL
 ---------------------------------------------------------------------------
  1 -0.1343E+06  0  0.9470E+05  0  0.9404E+05  0  0.6765E+05  0   6075.    
   ( 21,  1, 89)  ( 19,  1, 89)  ( 19,  1, 89)  ( 19,  1, 89)  ( 17,  1, 87)
  0  -2770.      0  -2545.      1  -1791.    
   ( 22,  1, 87)  ( 22,  1, 87)  ( 22,  1, 87)


 FLOW MODEL IS TRANSIENT
 FLOW MODEL CONTAINS CONSTANT-HEAD CELLS


 MAXIMUM STEPSIZE DURING WHICH ANY PARTICLE CANNOT MOVE MORE THAN ONE CELL
 =  13.18    (WHEN MIN. R.F.=1)  AT K=  17, I=   1, J=  90

 MAXIMUM STEPSIZE WHICH MEETS STABILITY CRITERION OF THE ADVECTION TERM
 (FOR PURE FINITE-DIFFERENCE OPTION, MIXELM=0) 
 =  7.984    (WHEN MIN. R.F.=1)  AT K=  16, I=   1, J=  90


 TOTAL NUMBER OF POINT SOURCES/SINKS PRESENT IN THE FLOW MODEL =    30

 MAXIMUM STEPSIZE WHICH MEETS STABILITY CRITERION OF THE SINK & SOURCE TERM
 =  12.11    (WHEN MIN. R.F.=1)  AT K=  17, I=   1, J=  91

 MAXIMUM STEPSIZE WHICH MEETS STABILITY CRITERION OF THE DISPERSION TERM
 =  4.358    (WHEN MIN. R.F.=1)  AT K=  17, I=   1, J=  90
     1 CALLS TO GCG PACKAGE FOR TRANSPORT TIME STEP 658 IN FLOW TIME STEP   1 STRESS PERIOD   1
    10 TOTAL ITERATIONS
     1 CALLS TO GCG PACKAGE FOR TRANSPORT TIME STEP 658 IN FLOW TIME STEP   1 STRESS PERIOD   1
     8 TOTAL ITERATIONS
 
 SOLVING FOR HEAD 


     2 CALLS TO PCG ROUTINE FOR TIME STEP   1 IN STRESS PERIOD    1
     9 TOTAL ITERATIONS

 MAXIMUM HEAD CHANGE FOR EACH ITERATION (1 INDICATES THE FIRST INNER ITERATION):

    HEAD CHANGE    HEAD CHANGE    HEAD CHANGE    HEAD CHANGE    HEAD CHANGE 
   LAYER,ROW,COL  LAYER,ROW,COL  LAYER,ROW,COL  LAYER,ROW,COL  LAYER,ROW,COL
 ---------------------------------------------------------------------------
  1  0.1375E-01  0 -0.8425E-02  0 -0.4028E-02  0  0.1158E-01  0 -0.8421E-02
   ( 15,  1, 86)  ( 11,  1, 51)  (  8,  1, 12)  ( 11,  1, 51)  ( 11,  1, 52)
  0 -0.2466E-02  0  0.1048E-02  0 -0.6801E-03  1  0.5227E-03
   ( 11,  1, 62)  (  7,  1, 38)  ( 11,  1, 54)  ( 11,  1, 54)

 MAXIMUM RESIDUAL FOR EACH ITERATION (1 INDICATES THE FIRST INNER ITERATION):

    RESIDUAL       RESIDUAL       RESIDUAL       RESIDUAL       RESIDUAL    
   LAYER,ROW,COL  LAYER,ROW,COL  LAYER,ROW,COL  LAYER,ROW,COL  LAYER,ROW,COL
 ---------------------------------------------------------------------------
  1  0.1360E+06  0 -0.9656E+05  0 -0.9575E+05  0 -0.7695E+05  0   6205.    
   ( 21,  1, 89)  ( 19,  1, 89)  ( 19,  1, 89)  ( 19,  1, 89)  ( 17,  1, 88)
  0   3031.      0   2518.      0   1547.      1   1378.    
   ( 17,  1, 88)  ( 22,  1, 87)  ( 22,  1, 87)  ( 22,  1, 87)


 FLOW MODEL IS TRANSIENT
 FLOW MODEL CONTAINS CONSTANT-HEAD CELLS


 MAXIMUM STEPSIZE DURING WHICH ANY PARTICLE CANNOT MOVE MORE THAN ONE CELL
 =  12.86    (WHEN MIN. R.F.=1)  AT K=  17, I=   1, J=  90

 MAXIMUM STEPSIZE WHICH MEETS STABILITY CRITERION OF THE ADVECTION TERM
 (FOR PURE FINITE-DIFFERENCE OPTION, MIXELM=0) 
 =  8.043    (WHEN MIN. R.F.=1)  AT K=  16, I=   1, J=  90


 TOTAL NUMBER OF POINT SOURCES/SINKS PRESENT IN THE FLOW MODEL =    30

 MAXIMUM STEPSIZE WHICH MEETS STABILITY CRITERION OF THE SINK & SOURCE TERM
 =  12.22    (WHEN MIN. R.F.=1)  AT K=  17, I=   1, J=  91

 MAXIMUM STEPSIZE WHICH MEETS STABILITY CRITERION OF THE DISPERSION TERM
 =  4.029    (WHEN MIN. R.F.=1)  AT K=  17, I=   1, J=  90
     1 CALLS TO GCG PACKAGE FOR TRANSPORT TIME STEP 659 IN FLOW TIME STEP   1 STRESS PERIOD   1
     8 TOTAL ITERATIONS
     1 CALLS TO GCG PACKAGE FOR TRANSPORT TIME STEP 659 IN FLOW TIME STEP   1 STRESS PERIOD   1
     8 TOTAL ITERATIONS
 
 SOLVING FOR HEAD 


     2 CALLS TO PCG ROUTINE FOR TIME STEP   1 IN STRESS PERIOD    1
     8 TOTAL ITERATIONS

 MAXIMUM HEAD CHANGE FOR EACH ITERATION (1 INDICATES THE FIRST INNER ITERATION):

    HEAD CHANGE    HEAD CHANGE    HEAD CHANGE    HEAD CHANGE    HEAD CHANGE 
   LAYER,ROW,COL  LAYER,ROW,COL  LAYER,ROW,COL  LAYER,ROW,COL  LAYER,ROW,COL
 ---------------------------------------------------------------------------
  1 -0.1363E-01  0  0.4132E-02  0  0.4320E-02  0  0.7929E-02  0 -0.8238E-02
   ( 15,  1, 86)  ( 17,  1, 89)  (  8,  1, 12)  ( 11,  1, 41)  ( 11,  1, 41)
  0 -0.1580E-02  0 -0.9000E-03  1  0.8037E-03
   (  8,  1, 41)  ( 11,  1, 53)  ( 11,  1, 53)

 MAXIMUM RESIDUAL FOR EACH ITERATION (1 INDICATES THE FIRST INNER ITERATION):

    RESIDUAL       RESIDUAL       RESIDUAL       RESIDUAL       RESIDUAL    
   LAYER,ROW,COL  LAYER,ROW,COL  LAYER,ROW,COL  LAYER,ROW,COL  LAYER,ROW,COL
 ---------------------------------------------------------------------------
  1 -0.1343E+06  0  0.9525E+05  0  0.9455E+05  0  0.2577E+05  0  -5524.    
   ( 21,  1, 89)  ( 19,  1, 89)  ( 19,  1, 89)  ( 19,  1, 89)  ( 17,  1, 88)
  0  -2757.      0  -2501.      1  -1884.    
   ( 22,  1, 87)  ( 22,  1, 87)  ( 22,  1, 87)


 FLOW MODEL IS TRANSIENT
 FLOW MODEL CONTAINS CONSTANT-HEAD CELLS


 MAXIMUM STEPSIZE DURING WHICH ANY PARTICLE CANNOT MOVE MORE THAN ONE CELL
 =  13.24    (WHEN MIN. R.F.=1)  AT K=  17, I=   1, J=  90

 MAXIMUM STEPSIZE WHICH MEETS STABILITY CRITERION OF THE ADVECTION TERM
 (FOR PURE FINITE-DIFFERENCE OPTION, MIXELM=0) 
 =  8.005    (WHEN MIN. R.F.=1)  AT K=  16, I=   1, J=  90


 TOTAL NUMBER OF POINT SOURCES/SINKS PRESENT IN THE FLOW MODEL =    30

 MAXIMUM STEPSIZE WHICH MEETS STABILITY CRITERION OF THE SINK & SOURCE TERM
 =  12.18    (WHEN MIN. R.F.=1)  AT K=  17, I=   1, J=  91

 MAXIMUM STEPSIZE WHICH MEETS STABILITY CRITERION OF THE DISPERSION TERM
 =  4.386    (WHEN MIN. R.F.=1)  AT K=  17, I=   1, J=  90
     1 CALLS TO GCG PACKAGE FOR TRANSPORT TIME STEP 660 IN FLOW TIME STEP   1 STRESS PERIOD   1
     8 TOTAL ITERATIONS
  MAXIMUM CONCENTRATION CHANGES FOR EACH ITERATION:
  MAX. CHANGE LAYER,ROW,COL MAX. CHANGE LAYER,ROW,COL MAX. CHANGE LAYER,ROW,COL MAX. CHANGE LAYER,ROW,COL MAX. CHANGE LAYER,ROW,COL
 ------------------------------------------------------------------------------------------------------------------------------------
   0.4858E-01 ( 19,  1, 88)  0.3318E-02 ( 19,  1, 87)  0.2191E-02 ( 18,  1, 87)  0.2167E-03 ( 16,  1, 88)  0.1466E-03 ( 16,  1, 89)
   0.2829E-04 ( 16,  1, 90)  0.2402E-05 ( 21,  1, 78)  0.5196E-06 ( 15,  1, 89)
     1 CALLS TO GCG PACKAGE FOR TRANSPORT TIME STEP 660 IN FLOW TIME STEP   1 STRESS PERIOD   1
     8 TOTAL ITERATIONS
  MAXIMUM CONCENTRATION CHANGES FOR EACH ITERATION:
  MAX. CHANGE LAYER,ROW,COL MAX. CHANGE LAYER,ROW,COL MAX. CHANGE LAYER,ROW,COL MAX. CHANGE LAYER,ROW,COL MAX. CHANGE LAYER,ROW,COL
 ------------------------------------------------------------------------------------------------------------------------------------
   0.5436E-01 ( 20,  1, 87)  0.3732E-02 ( 19,  1, 87)  0.2351E-02 ( 18,  1, 87)  0.2254E-03 ( 16,  1, 88)  0.1359E-03 ( 17,  1, 89)
   0.3657E-04 ( 16,  1, 90)  0.5055E-05 ( 17,  1, 90)  0.6026E-06 ( 16,  1, 89)



 >>>>>>>>>>>>>>>>>>>>>>>>>>>>>>>>>>>>>>>>>>>>>>>>>>>>>>>FOR COMPONENT NO. 01<<<<<<<<<<<<<<<<<<<<<<<<<<<<<<<<<<<<<<<<<<<<<<<<<<<<<<<


                                            -------------------------------------------
                                                      TRANSPORT STEP NO.  660
                                            -------------------------------------------

 TOTAL ELAPSED TIME SINCE BEGINNING OF SIMULATION =   33000.00    D   
 .....................................................................

                     CUMMULATIVE MASS BUDGETS AT END OF TRANSPORT STEP  660, TIME STEP    1, STRESS PERIOD    1
                     ------------------------------------------------------------------------------------------

                                                             IN                           OUT
                                                      ----------------             ----------------
                               CONSTANT CONCENTRATION:    0.000000                    0.000000    
                                        CONSTANT HEAD:   0.1305779E+10              -0.1305572E+10
                                                WELLS:    0.000000                    0.000000    
                                             RECHARGE:    0.000000                    0.000000    
                               1ST/0TH ORDER REACTION:    0.000000                    0.000000    
                                MASS STORAGE (SOLUTE):   0.1825618E+09              -0.1827691E+09
                            ---------------------------------------------------------------------------
                                              [TOTAL]:   0.1488342E+10 KG           -0.1488343E+10 KG  

                                                          NET (IN - OUT):   -243.7291    
                                                   DISCREPANCY (PERCENT):  -0.1637587E-04



 >>>>>>>>>>>>>>>>>>>>>>>>>>>>>>>>>>>>>>>>>>>>>>>>>>>>>>>FOR COMPONENT NO. 02<<<<<<<<<<<<<<<<<<<<<<<<<<<<<<<<<<<<<<<<<<<<<<<<<<<<<<<


                                            -------------------------------------------
                                                      TRANSPORT STEP NO.  660
                                            -------------------------------------------

 TOTAL ELAPSED TIME SINCE BEGINNING OF SIMULATION =   33000.00    D   
 .....................................................................

                     CUMMULATIVE MASS BUDGETS AT END OF TRANSPORT STEP  660, TIME STEP    1, STRESS PERIOD    1
                     ------------------------------------------------------------------------------------------

                                                             IN                           OUT
                                                      ----------------             ----------------
                               CONSTANT CONCENTRATION:    0.000000                    0.000000    
                                        CONSTANT HEAD:    0.000000                  -0.2385131E+12
                                                WELLS:    0.000000                    0.000000    
                                             RECHARGE:    0.000000                    0.000000    
                               1ST/0TH ORDER REACTION:   0.5461500E+12                0.000000    
                                MASS STORAGE (SOLUTE):   0.8392183E+11              -0.3915589E+12
                            ---------------------------------------------------------------------------
                                              [TOTAL]:   0.6300730E+12 KG           -0.6300731E+12 KG  

                                                          NET (IN - OUT):   -82299.37    
                                                   DISCREPANCY (PERCENT):  -0.1306188E-04
 
 SOLVING FOR HEAD 


     2 CALLS TO PCG ROUTINE FOR TIME STEP   1 IN STRESS PERIOD    1
     9 TOTAL ITERATIONS

 MAXIMUM HEAD CHANGE FOR EACH ITERATION (1 INDICATES THE FIRST INNER ITERATION):

    HEAD CHANGE    HEAD CHANGE    HEAD CHANGE    HEAD CHANGE    HEAD CHANGE 
   LAYER,ROW,COL  LAYER,ROW,COL  LAYER,ROW,COL  LAYER,ROW,COL  LAYER,ROW,COL
 ---------------------------------------------------------------------------
  1  0.1366E-01  0  0.9587E-02  0 -0.4058E-02  0 -0.1312E-01  0  0.7847E-02
   ( 15,  1, 86)  ( 11,  1, 53)  (  8,  1, 12)  ( 11,  1, 53)  ( 11,  1, 52)
  0 -0.3781E-02  0 -0.1103E-02  0 -0.6585E-03  1  0.5222E-03
   ( 11,  1, 42)  ( 11,  1, 54)  ( 11,  1, 70)  ( 11,  1, 70)

 MAXIMUM RESIDUAL FOR EACH ITERATION (1 INDICATES THE FIRST INNER ITERATION):

    RESIDUAL       RESIDUAL       RESIDUAL       RESIDUAL       RESIDUAL    
   LAYER,ROW,COL  LAYER,ROW,COL  LAYER,ROW,COL  LAYER,ROW,COL  LAYER,ROW,COL
 ---------------------------------------------------------------------------
  1  0.1368E+06  0 -0.9687E+05  0 -0.9605E+05  0 -0.7607E+05  0   6546.    
   ( 21,  1, 89)  ( 19,  1, 89)  ( 19,  1, 89)  ( 19,  1, 89)  ( 17,  1, 88)
  0   3370.      0   2556.      0   1636.      1   1459.    
   ( 17,  1, 88)  ( 22,  1, 87)  ( 22,  1, 87)  ( 22,  1, 87)


 FLOW MODEL IS TRANSIENT
 FLOW MODEL CONTAINS CONSTANT-HEAD CELLS


 MAXIMUM STEPSIZE DURING WHICH ANY PARTICLE CANNOT MOVE MORE THAN ONE CELL
 =  12.88    (WHEN MIN. R.F.=1)  AT K=  17, I=   1, J=  90

 MAXIMUM STEPSIZE WHICH MEETS STABILITY CRITERION OF THE ADVECTION TERM
 (FOR PURE FINITE-DIFFERENCE OPTION, MIXELM=0) 
 =  8.051    (WHEN MIN. R.F.=1)  AT K=  16, I=   1, J=  90


 TOTAL NUMBER OF POINT SOURCES/SINKS PRESENT IN THE FLOW MODEL =    30

 MAXIMUM STEPSIZE WHICH MEETS STABILITY CRITERION OF THE SINK & SOURCE TERM
 =  12.26    (WHEN MIN. R.F.=1)  AT K=  17, I=   1, J=  91

 MAXIMUM STEPSIZE WHICH MEETS STABILITY CRITERION OF THE DISPERSION TERM
 =  4.038    (WHEN MIN. R.F.=1)  AT K=  17, I=   1, J=  90
     1 CALLS TO GCG PACKAGE FOR TRANSPORT TIME STEP 661 IN FLOW TIME STEP   1 STRESS PERIOD   1
     8 TOTAL ITERATIONS
     1 CALLS TO GCG PACKAGE FOR TRANSPORT TIME STEP 661 IN FLOW TIME STEP   1 STRESS PERIOD   1
     8 TOTAL ITERATIONS
 
 SOLVING FOR HEAD 


     2 CALLS TO PCG ROUTINE FOR TIME STEP   1 IN STRESS PERIOD    1
     8 TOTAL ITERATIONS

 MAXIMUM HEAD CHANGE FOR EACH ITERATION (1 INDICATES THE FIRST INNER ITERATION):

    HEAD CHANGE    HEAD CHANGE    HEAD CHANGE    HEAD CHANGE    HEAD CHANGE 
   LAYER,ROW,COL  LAYER,ROW,COL  LAYER,ROW,COL  LAYER,ROW,COL  LAYER,ROW,COL
 ---------------------------------------------------------------------------
  1 -0.1372E-01  0 -0.4800E-02  0  0.5293E-02  0  0.8018E-02  0 -0.8263E-02
   ( 15,  1, 86)  (  6,  1, 12)  (  8,  1, 12)  (  9,  1, 40)  (  7,  1, 40)
  0  0.2036E-02  0 -0.7997E-03  1  0.5589E-03
   ( 11,  1, 68)  ( 11,  1, 67)  ( 11,  1, 66)

 MAXIMUM RESIDUAL FOR EACH ITERATION (1 INDICATES THE FIRST INNER ITERATION):

    RESIDUAL       RESIDUAL       RESIDUAL       RESIDUAL       RESIDUAL    
   LAYER,ROW,COL  LAYER,ROW,COL  LAYER,ROW,COL  LAYER,ROW,COL  LAYER,ROW,COL
 ---------------------------------------------------------------------------
  1 -0.1371E+06  0  0.9732E+05  0  0.9679E+05  0  0.3040E+05  0  -5632.    
   ( 21,  1, 89)  ( 19,  1, 89)  ( 19,  1, 89)  ( 19,  1, 89)  ( 17,  1, 88)
  0  -2759.      0  -2507.      1  -1943.    
   ( 22,  1, 87)  ( 22,  1, 87)  ( 22,  1, 87)


 FLOW MODEL IS TRANSIENT
 FLOW MODEL CONTAINS CONSTANT-HEAD CELLS


 MAXIMUM STEPSIZE DURING WHICH ANY PARTICLE CANNOT MOVE MORE THAN ONE CELL
 =  13.24    (WHEN MIN. R.F.=1)  AT K=  17, I=   1, J=  90

 MAXIMUM STEPSIZE WHICH MEETS STABILITY CRITERION OF THE ADVECTION TERM
 (FOR PURE FINITE-DIFFERENCE OPTION, MIXELM=0) 
 =  8.005    (WHEN MIN. R.F.=1)  AT K=  16, I=   1, J=  90


 TOTAL NUMBER OF POINT SOURCES/SINKS PRESENT IN THE FLOW MODEL =    30

 MAXIMUM STEPSIZE WHICH MEETS STABILITY CRITERION OF THE SINK & SOURCE TERM
 =  12.18    (WHEN MIN. R.F.=1)  AT K=  17, I=   1, J=  91

 MAXIMUM STEPSIZE WHICH MEETS STABILITY CRITERION OF THE DISPERSION TERM
 =  4.386    (WHEN MIN. R.F.=1)  AT K=  17, I=   1, J=  90
     1 CALLS TO GCG PACKAGE FOR TRANSPORT TIME STEP 662 IN FLOW TIME STEP   1 STRESS PERIOD   1
    10 TOTAL ITERATIONS
     1 CALLS TO GCG PACKAGE FOR TRANSPORT TIME STEP 662 IN FLOW TIME STEP   1 STRESS PERIOD   1
     8 TOTAL ITERATIONS
 
 SOLVING FOR HEAD 


     2 CALLS TO PCG ROUTINE FOR TIME STEP   1 IN STRESS PERIOD    1
     8 TOTAL ITERATIONS

 MAXIMUM HEAD CHANGE FOR EACH ITERATION (1 INDICATES THE FIRST INNER ITERATION):

    HEAD CHANGE    HEAD CHANGE    HEAD CHANGE    HEAD CHANGE    HEAD CHANGE 
   LAYER,ROW,COL  LAYER,ROW,COL  LAYER,ROW,COL  LAYER,ROW,COL  LAYER,ROW,COL
 ---------------------------------------------------------------------------
  1  0.1371E-01  0 -0.7630E-02  0 -0.3623E-02  0  0.9373E-02  0  0.6404E-02
   ( 15,  1, 86)  ( 11,  1, 49)  (  8,  1, 12)  ( 11,  1, 49)  ( 11,  1, 67)
  0 -0.2817E-02  0  0.9947E-03  1 -0.7989E-03
   ( 11,  1, 59)  (  8,  1, 38)  ( 11,  1, 53)

 MAXIMUM RESIDUAL FOR EACH ITERATION (1 INDICATES THE FIRST INNER ITERATION):

    RESIDUAL       RESIDUAL       RESIDUAL       RESIDUAL       RESIDUAL    
   LAYER,ROW,COL  LAYER,ROW,COL  LAYER,ROW,COL  LAYER,ROW,COL  LAYER,ROW,COL
 ---------------------------------------------------------------------------
  1  0.1377E+06  0 -0.9804E+05  0 -0.9710E+05  0 -0.8053E+05  0   6412.    
   ( 21,  1, 89)  ( 19,  1, 89)  ( 19,  1, 89)  ( 19,  1, 89)  ( 17,  1, 88)
  0   3248.      0   2561.      1   1545.    
   ( 17,  1, 88)  ( 22,  1, 87)  ( 22,  1, 87)


 FLOW MODEL IS TRANSIENT
 FLOW MODEL CONTAINS CONSTANT-HEAD CELLS


 MAXIMUM STEPSIZE DURING WHICH ANY PARTICLE CANNOT MOVE MORE THAN ONE CELL
 =  12.87    (WHEN MIN. R.F.=1)  AT K=  17, I=   1, J=  90

 MAXIMUM STEPSIZE WHICH MEETS STABILITY CRITERION OF THE ADVECTION TERM
 (FOR PURE FINITE-DIFFERENCE OPTION, MIXELM=0) 
 =  8.049    (WHEN MIN. R.F.=1)  AT K=  16, I=   1, J=  90


 TOTAL NUMBER OF POINT SOURCES/SINKS PRESENT IN THE FLOW MODEL =    30

 MAXIMUM STEPSIZE WHICH MEETS STABILITY CRITERION OF THE SINK & SOURCE TERM
 =  12.25    (WHEN MIN. R.F.=1)  AT K=  17, I=   1, J=  91

 MAXIMUM STEPSIZE WHICH MEETS STABILITY CRITERION OF THE DISPERSION TERM
 =  4.032    (WHEN MIN. R.F.=1)  AT K=  17, I=   1, J=  90
     1 CALLS TO GCG PACKAGE FOR TRANSPORT TIME STEP 663 IN FLOW TIME STEP   1 STRESS PERIOD   1
     8 TOTAL ITERATIONS
     1 CALLS TO GCG PACKAGE FOR TRANSPORT TIME STEP 663 IN FLOW TIME STEP   1 STRESS PERIOD   1
     8 TOTAL ITERATIONS
 
 SOLVING FOR HEAD 


     2 CALLS TO PCG ROUTINE FOR TIME STEP   1 IN STRESS PERIOD    1
    10 TOTAL ITERATIONS

 MAXIMUM HEAD CHANGE FOR EACH ITERATION (1 INDICATES THE FIRST INNER ITERATION):

    HEAD CHANGE    HEAD CHANGE    HEAD CHANGE    HEAD CHANGE    HEAD CHANGE 
   LAYER,ROW,COL  LAYER,ROW,COL  LAYER,ROW,COL  LAYER,ROW,COL  LAYER,ROW,COL
 ---------------------------------------------------------------------------
  1 -0.1367E-01  0 -0.1052E-01  0  0.7662E-02  0  0.1235E-01  0 -0.6561E-02
   ( 15,  1, 86)  ( 11,  1, 53)  (  8,  1, 12)  ( 11,  1, 53)  ( 11,  1, 54)
  0  0.3675E-02  0  0.1482E-02  0  0.1299E-02  0 -0.5381E-03  1  0.4270E-03
   ( 11,  1, 67)  ( 11,  1, 52)  ( 11,  1, 70)  ( 11,  1, 70)  ( 11,  1, 68)

 MAXIMUM RESIDUAL FOR EACH ITERATION (1 INDICATES THE FIRST INNER ITERATION):

    RESIDUAL       RESIDUAL       RESIDUAL       RESIDUAL       RESIDUAL    
   LAYER,ROW,COL  LAYER,ROW,COL  LAYER,ROW,COL  LAYER,ROW,COL  LAYER,ROW,COL
 ---------------------------------------------------------------------------
  1 -0.1382E+06  0  0.9740E+05  0  0.9746E+05  0  0.7948E+05  0  -6549.    
   ( 21,  1, 89)  ( 19,  1, 89)  ( 19,  1, 89)  ( 19,  1, 89)  ( 17,  1, 88)
  0  -3330.      0  -2530.      0  -1784.      0  -477.7      1  -408.4    
   ( 17,  1, 88)  ( 22,  1, 87)  ( 22,  1, 87)  ( 22,  1, 87)  ( 22,  1, 87)


 FLOW MODEL IS TRANSIENT
 FLOW MODEL CONTAINS CONSTANT-HEAD CELLS


 MAXIMUM STEPSIZE DURING WHICH ANY PARTICLE CANNOT MOVE MORE THAN ONE CELL
 =  13.22    (WHEN MIN. R.F.=1)  AT K=  17, I=   1, J=  90

 MAXIMUM STEPSIZE WHICH MEETS STABILITY CRITERION OF THE ADVECTION TERM
 (FOR PURE FINITE-DIFFERENCE OPTION, MIXELM=0) 
 =  7.997    (WHEN MIN. R.F.=1)  AT K=  16, I=   1, J=  90


 TOTAL NUMBER OF POINT SOURCES/SINKS PRESENT IN THE FLOW MODEL =    30

 MAXIMUM STEPSIZE WHICH MEETS STABILITY CRITERION OF THE SINK & SOURCE TERM
 =  12.16    (WHEN MIN. R.F.=1)  AT K=  17, I=   1, J=  91

 MAXIMUM STEPSIZE WHICH MEETS STABILITY CRITERION OF THE DISPERSION TERM
 =  4.380    (WHEN MIN. R.F.=1)  AT K=  17, I=   1, J=  90
     1 CALLS TO GCG PACKAGE FOR TRANSPORT TIME STEP 664 IN FLOW TIME STEP   1 STRESS PERIOD   1
     9 TOTAL ITERATIONS
     1 CALLS TO GCG PACKAGE FOR TRANSPORT TIME STEP 664 IN FLOW TIME STEP   1 STRESS PERIOD   1
     8 TOTAL ITERATIONS
 
 SOLVING FOR HEAD 


     2 CALLS TO PCG ROUTINE FOR TIME STEP   1 IN STRESS PERIOD    1
     8 TOTAL ITERATIONS

 MAXIMUM HEAD CHANGE FOR EACH ITERATION (1 INDICATES THE FIRST INNER ITERATION):

    HEAD CHANGE    HEAD CHANGE    HEAD CHANGE    HEAD CHANGE    HEAD CHANGE 
   LAYER,ROW,COL  LAYER,ROW,COL  LAYER,ROW,COL  LAYER,ROW,COL  LAYER,ROW,COL
 ---------------------------------------------------------------------------
  1  0.1335E-01  0 -0.3910E-02  0 -0.2656E-02  0 -0.7572E-02  0  0.9391E-02
   ( 15,  1, 86)  ( 17,  1, 89)  (  8,  1, 12)  ( 11,  1, 67)  ( 11,  1, 67)
  0 -0.1858E-02  0 -0.6920E-03  1 -0.5508E-03
   ( 11,  1, 69)  ( 11,  1, 52)  ( 11,  1, 62)

 MAXIMUM RESIDUAL FOR EACH ITERATION (1 INDICATES THE FIRST INNER ITERATION):

    RESIDUAL       RESIDUAL       RESIDUAL       RESIDUAL       RESIDUAL    
   LAYER,ROW,COL  LAYER,ROW,COL  LAYER,ROW,COL  LAYER,ROW,COL  LAYER,ROW,COL
 ---------------------------------------------------------------------------
  1  0.1360E+06  0 -0.9633E+05  0 -0.9283E+05  0 -0.1657E+05  0   4694.    
   ( 21,  1, 89)  ( 19,  1, 89)  ( 19,  1, 89)  ( 19,  1, 89)  ( 17,  1, 88)
  0   2804.      0   2430.      1   2059.    
   ( 22,  1, 87)  ( 22,  1, 87)  ( 22,  1, 87)


 FLOW MODEL IS TRANSIENT
 FLOW MODEL CONTAINS CONSTANT-HEAD CELLS


 MAXIMUM STEPSIZE DURING WHICH ANY PARTICLE CANNOT MOVE MORE THAN ONE CELL
 =  12.82    (WHEN MIN. R.F.=1)  AT K=  17, I=   1, J=  90

 MAXIMUM STEPSIZE WHICH MEETS STABILITY CRITERION OF THE ADVECTION TERM
 (FOR PURE FINITE-DIFFERENCE OPTION, MIXELM=0) 
 =  8.021    (WHEN MIN. R.F.=1)  AT K=  16, I=   1, J=  90


 TOTAL NUMBER OF POINT SOURCES/SINKS PRESENT IN THE FLOW MODEL =    30

 MAXIMUM STEPSIZE WHICH MEETS STABILITY CRITERION OF THE SINK & SOURCE TERM
 =  12.18    (WHEN MIN. R.F.=1)  AT K=  17, I=   1, J=  91

 MAXIMUM STEPSIZE WHICH MEETS STABILITY CRITERION OF THE DISPERSION TERM
 =  4.015    (WHEN MIN. R.F.=1)  AT K=  17, I=   1, J=  90
     1 CALLS TO GCG PACKAGE FOR TRANSPORT TIME STEP 665 IN FLOW TIME STEP   1 STRESS PERIOD   1
     8 TOTAL ITERATIONS
  MAXIMUM CONCENTRATION CHANGES FOR EACH ITERATION:
  MAX. CHANGE LAYER,ROW,COL MAX. CHANGE LAYER,ROW,COL MAX. CHANGE LAYER,ROW,COL MAX. CHANGE LAYER,ROW,COL MAX. CHANGE LAYER,ROW,COL
 ------------------------------------------------------------------------------------------------------------------------------------
   0.5222E-01 ( 20,  1, 87)  0.4224E-02 ( 19,  1, 89)  0.2120E-02 ( 17,  1, 86)  0.4843E-03 ( 20,  1, 89)  0.9680E-04 ( 16,  1, 89)
   0.2083E-04 ( 20,  1, 89)  0.2025E-04 ( 16,  1, 90)  0.6358E-06 ( 17,  1, 90)
     1 CALLS TO GCG PACKAGE FOR TRANSPORT TIME STEP 665 IN FLOW TIME STEP   1 STRESS PERIOD   1
     8 TOTAL ITERATIONS
  MAXIMUM CONCENTRATION CHANGES FOR EACH ITERATION:
  MAX. CHANGE LAYER,ROW,COL MAX. CHANGE LAYER,ROW,COL MAX. CHANGE LAYER,ROW,COL MAX. CHANGE LAYER,ROW,COL MAX. CHANGE LAYER,ROW,COL
 ------------------------------------------------------------------------------------------------------------------------------------
   0.5866E-01 ( 20,  1, 87)  0.4797E-02 ( 19,  1, 89)  0.2120E-02 ( 18,  1, 86)  0.4330E-03 ( 20,  1, 89)  0.1087E-03 ( 16,  1, 89)
   0.1846E-04 ( 23,  1, 87)  0.1798E-04 ( 16,  1, 90)  0.8261E-06 ( 17,  1, 90)
 
 SOLVING FOR HEAD 


     2 CALLS TO PCG ROUTINE FOR TIME STEP   1 IN STRESS PERIOD    1
     9 TOTAL ITERATIONS

 MAXIMUM HEAD CHANGE FOR EACH ITERATION (1 INDICATES THE FIRST INNER ITERATION):

    HEAD CHANGE    HEAD CHANGE    HEAD CHANGE    HEAD CHANGE    HEAD CHANGE 
   LAYER,ROW,COL  LAYER,ROW,COL  LAYER,ROW,COL  LAYER,ROW,COL  LAYER,ROW,COL
 ---------------------------------------------------------------------------
  1 -0.1366E-01  0 -0.7194E-02  0  0.5180E-02  0  0.8586E-02  0 -0.6946E-02
   ( 15,  1, 86)  (  6,  1, 36)  (  7,  1, 12)  (  7,  1, 39)  (  9,  1, 51)
  0  0.3504E-02  0  0.1013E-02  0  0.8222E-03  1 -0.8226E-03
   ( 11,  1, 67)  ( 11,  1, 42)  ( 11,  1, 70)  ( 11,  1, 70)

 MAXIMUM RESIDUAL FOR EACH ITERATION (1 INDICATES THE FIRST INNER ITERATION):

    RESIDUAL       RESIDUAL       RESIDUAL       RESIDUAL       RESIDUAL    
   LAYER,ROW,COL  LAYER,ROW,COL  LAYER,ROW,COL  LAYER,ROW,COL  LAYER,ROW,COL
 ---------------------------------------------------------------------------
  1 -0.1363E+06  0  0.9621E+05  0  0.9567E+05  0  0.7282E+05  0   6369.    
   ( 21,  1, 89)  ( 19,  1, 89)  ( 19,  1, 89)  ( 19,  1, 89)  ( 17,  1, 87)
  0  -3023.      0  -2538.      0  -851.7      1  -740.4    
   ( 17,  1, 88)  ( 22,  1, 87)  ( 22,  1, 87)  ( 22,  1, 87)


 FLOW MODEL IS TRANSIENT
 FLOW MODEL CONTAINS CONSTANT-HEAD CELLS


 MAXIMUM STEPSIZE DURING WHICH ANY PARTICLE CANNOT MOVE MORE THAN ONE CELL
 =  13.15    (WHEN MIN. R.F.=1)  AT K=  17, I=   1, J=  90

 MAXIMUM STEPSIZE WHICH MEETS STABILITY CRITERION OF THE ADVECTION TERM
 (FOR PURE FINITE-DIFFERENCE OPTION, MIXELM=0) 
 =  7.973    (WHEN MIN. R.F.=1)  AT K=  16, I=   1, J=  90


 TOTAL NUMBER OF POINT SOURCES/SINKS PRESENT IN THE FLOW MODEL =    30

 MAXIMUM STEPSIZE WHICH MEETS STABILITY CRITERION OF THE SINK & SOURCE TERM
 =  12.08    (WHEN MIN. R.F.=1)  AT K=  17, I=   1, J=  91

 MAXIMUM STEPSIZE WHICH MEETS STABILITY CRITERION OF THE DISPERSION TERM
 =  4.344    (WHEN MIN. R.F.=1)  AT K=  17, I=   1, J=  90
     1 CALLS TO GCG PACKAGE FOR TRANSPORT TIME STEP 666 IN FLOW TIME STEP   1 STRESS PERIOD   1
    10 TOTAL ITERATIONS
     1 CALLS TO GCG PACKAGE FOR TRANSPORT TIME STEP 666 IN FLOW TIME STEP   1 STRESS PERIOD   1
     8 TOTAL ITERATIONS
 
 SOLVING FOR HEAD 


     2 CALLS TO PCG ROUTINE FOR TIME STEP   1 IN STRESS PERIOD    1
     9 TOTAL ITERATIONS

 MAXIMUM HEAD CHANGE FOR EACH ITERATION (1 INDICATES THE FIRST INNER ITERATION):

    HEAD CHANGE    HEAD CHANGE    HEAD CHANGE    HEAD CHANGE    HEAD CHANGE 
   LAYER,ROW,COL  LAYER,ROW,COL  LAYER,ROW,COL  LAYER,ROW,COL  LAYER,ROW,COL
 ---------------------------------------------------------------------------
  1  0.1364E-01  0 -0.4109E-02  0 -0.2835E-02  0 -0.9926E-02  0  0.1096E-01
   ( 15,  1, 86)  ( 17,  1, 89)  (  8,  1, 12)  ( 11,  1, 54)  ( 11,  1, 54)
  0 -0.1760E-02  0 -0.1838E-02  0  0.9290E-03  1  0.5527E-03
   ( 11,  1, 53)  ( 11,  1, 66)  ( 11,  1, 66)  ( 11,  1, 70)

 MAXIMUM RESIDUAL FOR EACH ITERATION (1 INDICATES THE FIRST INNER ITERATION):

    RESIDUAL       RESIDUAL       RESIDUAL       RESIDUAL       RESIDUAL    
   LAYER,ROW,COL  LAYER,ROW,COL  LAYER,ROW,COL  LAYER,ROW,COL  LAYER,ROW,COL
 ---------------------------------------------------------------------------
  1  0.1335E+06  0 -0.9444E+05  0 -0.9339E+05  0 -0.2550E+05  0   5271.    
   ( 21,  1, 89)  ( 19,  1, 89)  ( 19,  1, 89)  ( 19,  1, 89)  ( 17,  1, 88)
  0   2779.      0   2002.      0   582.6      1   497.7    
   ( 22,  1, 87)  ( 22,  1, 87)  ( 22,  1, 87)  ( 22,  1, 87)


 FLOW MODEL IS TRANSIENT
 FLOW MODEL CONTAINS CONSTANT-HEAD CELLS


 MAXIMUM STEPSIZE DURING WHICH ANY PARTICLE CANNOT MOVE MORE THAN ONE CELL
 =  12.83    (WHEN MIN. R.F.=1)  AT K=  17, I=   1, J=  90

 MAXIMUM STEPSIZE WHICH MEETS STABILITY CRITERION OF THE ADVECTION TERM
 (FOR PURE FINITE-DIFFERENCE OPTION, MIXELM=0) 
 =  8.027    (WHEN MIN. R.F.=1)  AT K=  16, I=   1, J=  90


 TOTAL NUMBER OF POINT SOURCES/SINKS PRESENT IN THE FLOW MODEL =    30

 MAXIMUM STEPSIZE WHICH MEETS STABILITY CRITERION OF THE SINK & SOURCE TERM
 =  12.17    (WHEN MIN. R.F.=1)  AT K=  17, I=   1, J=  91

 MAXIMUM STEPSIZE WHICH MEETS STABILITY CRITERION OF THE DISPERSION TERM
 =  4.021    (WHEN MIN. R.F.=1)  AT K=  17, I=   1, J=  90
     1 CALLS TO GCG PACKAGE FOR TRANSPORT TIME STEP 667 IN FLOW TIME STEP   1 STRESS PERIOD   1
     8 TOTAL ITERATIONS
     1 CALLS TO GCG PACKAGE FOR TRANSPORT TIME STEP 667 IN FLOW TIME STEP   1 STRESS PERIOD   1
     8 TOTAL ITERATIONS
 
 SOLVING FOR HEAD 


     2 CALLS TO PCG ROUTINE FOR TIME STEP   1 IN STRESS PERIOD    1
    10 TOTAL ITERATIONS

 MAXIMUM HEAD CHANGE FOR EACH ITERATION (1 INDICATES THE FIRST INNER ITERATION):

    HEAD CHANGE    HEAD CHANGE    HEAD CHANGE    HEAD CHANGE    HEAD CHANGE 
   LAYER,ROW,COL  LAYER,ROW,COL  LAYER,ROW,COL  LAYER,ROW,COL  LAYER,ROW,COL
 ---------------------------------------------------------------------------
  1 -0.1326E-01  0  0.3625E-02  0  0.2370E-02  0 -0.7413E-02  0  0.7784E-02
   ( 15,  1, 86)  ( 17,  1, 89)  (  8,  1, 12)  (  8,  1, 52)  (  8,  1, 52)
  0 -0.2591E-02  0  0.1581E-02  0  0.1010E-02  0 -0.7015E-03  1 -0.3257E-03
   ( 11,  1, 65)  ( 11,  1, 65)  ( 11,  1, 58)  ( 11,  1, 56)  ( 11,  1, 70)

 MAXIMUM RESIDUAL FOR EACH ITERATION (1 INDICATES THE FIRST INNER ITERATION):

    RESIDUAL       RESIDUAL       RESIDUAL       RESIDUAL       RESIDUAL    
   LAYER,ROW,COL  LAYER,ROW,COL  LAYER,ROW,COL  LAYER,ROW,COL  LAYER,ROW,COL
 ---------------------------------------------------------------------------
  1 -0.1310E+06  0  0.9213E+05  0  0.9052E+05  0  0.2716E+05  0   6068.    
   ( 21,  1, 89)  ( 19,  1, 89)  ( 19,  1, 89)  ( 19,  1, 89)  ( 17,  1, 87)
  0  -2824.      0  -2459.      0  -866.8      0  -380.2      1  -332.3    
   ( 22,  1, 87)  ( 22,  1, 87)  ( 22,  1, 87)  ( 22,  1, 87)  ( 22,  1, 87)


 FLOW MODEL IS TRANSIENT
 FLOW MODEL CONTAINS CONSTANT-HEAD CELLS


 MAXIMUM STEPSIZE DURING WHICH ANY PARTICLE CANNOT MOVE MORE THAN ONE CELL
 =  13.22    (WHEN MIN. R.F.=1)  AT K=  17, I=   1, J=  90

 MAXIMUM STEPSIZE WHICH MEETS STABILITY CRITERION OF THE ADVECTION TERM
 (FOR PURE FINITE-DIFFERENCE OPTION, MIXELM=0) 
 =  8.003    (WHEN MIN. R.F.=1)  AT K=  16, I=   1, J=  90


 TOTAL NUMBER OF POINT SOURCES/SINKS PRESENT IN THE FLOW MODEL =    30

 MAXIMUM STEPSIZE WHICH MEETS STABILITY CRITERION OF THE SINK & SOURCE TERM
 =  12.17    (WHEN MIN. R.F.=1)  AT K=  17, I=   1, J=  91

 MAXIMUM STEPSIZE WHICH MEETS STABILITY CRITERION OF THE DISPERSION TERM
 =  4.370    (WHEN MIN. R.F.=1)  AT K=  17, I=   1, J=  90
     1 CALLS TO GCG PACKAGE FOR TRANSPORT TIME STEP 668 IN FLOW TIME STEP   1 STRESS PERIOD   1
     9 TOTAL ITERATIONS
     1 CALLS TO GCG PACKAGE FOR TRANSPORT TIME STEP 668 IN FLOW TIME STEP   1 STRESS PERIOD   1
     8 TOTAL ITERATIONS
 
 SOLVING FOR HEAD 


     2 CALLS TO PCG ROUTINE FOR TIME STEP   1 IN STRESS PERIOD    1
    10 TOTAL ITERATIONS

 MAXIMUM HEAD CHANGE FOR EACH ITERATION (1 INDICATES THE FIRST INNER ITERATION):

    HEAD CHANGE    HEAD CHANGE    HEAD CHANGE    HEAD CHANGE    HEAD CHANGE 
   LAYER,ROW,COL  LAYER,ROW,COL  LAYER,ROW,COL  LAYER,ROW,COL  LAYER,ROW,COL
 ---------------------------------------------------------------------------
  1  0.1338E-01  0 -0.3574E-02  0 -0.2397E-02  0 -0.4764E-02  0  0.7017E-02
   ( 15,  1, 86)  ( 17,  1, 89)  (  8,  1, 12)  ( 11,  1, 56)  ( 11,  1, 56)
  0 -0.2367E-02  0 -0.1737E-02  0  0.1096E-02  0  0.4167E-03  1  0.1199E-03
   ( 11,  1, 58)  ( 11,  1, 65)  ( 11,  1, 65)  ( 11,  1, 70)  ( 11,  1, 61)

 MAXIMUM RESIDUAL FOR EACH ITERATION (1 INDICATES THE FIRST INNER ITERATION):

    RESIDUAL       RESIDUAL       RESIDUAL       RESIDUAL       RESIDUAL    
   LAYER,ROW,COL  LAYER,ROW,COL  LAYER,ROW,COL  LAYER,ROW,COL  LAYER,ROW,COL
 ---------------------------------------------------------------------------
  1  0.1311E+06  0 -0.9079E+05  0 -0.8832E+05  0 -0.1308E+05  0   3780.    
   ( 21,  1, 89)  ( 19,  1, 89)  ( 19,  1, 89)  ( 17,  1, 87)  ( 18,  1, 89)
  0   2901.      0   1929.      0   619.3      0   328.9      1   300.0    
   ( 22,  1, 87)  ( 22,  1, 87)  ( 22,  1, 87)  ( 22,  1, 87)  ( 22,  1, 87)


 FLOW MODEL IS TRANSIENT
 FLOW MODEL CONTAINS CONSTANT-HEAD CELLS


 MAXIMUM STEPSIZE DURING WHICH ANY PARTICLE CANNOT MOVE MORE THAN ONE CELL
 =  12.85    (WHEN MIN. R.F.=1)  AT K=  17, I=   1, J=  90

 MAXIMUM STEPSIZE WHICH MEETS STABILITY CRITERION OF THE ADVECTION TERM
 (FOR PURE FINITE-DIFFERENCE OPTION, MIXELM=0) 
 =  8.029    (WHEN MIN. R.F.=1)  AT K=  16, I=   1, J=  90


 TOTAL NUMBER OF POINT SOURCES/SINKS PRESENT IN THE FLOW MODEL =    30

 MAXIMUM STEPSIZE WHICH MEETS STABILITY CRITERION OF THE SINK & SOURCE TERM
 =  12.19    (WHEN MIN. R.F.=1)  AT K=  17, I=   1, J=  91

 MAXIMUM STEPSIZE WHICH MEETS STABILITY CRITERION OF THE DISPERSION TERM
 =  4.032    (WHEN MIN. R.F.=1)  AT K=  17, I=   1, J=  90
     1 CALLS TO GCG PACKAGE FOR TRANSPORT TIME STEP 669 IN FLOW TIME STEP   1 STRESS PERIOD   1
     8 TOTAL ITERATIONS
     1 CALLS TO GCG PACKAGE FOR TRANSPORT TIME STEP 669 IN FLOW TIME STEP   1 STRESS PERIOD   1
     8 TOTAL ITERATIONS
 
 SOLVING FOR HEAD 


     2 CALLS TO PCG ROUTINE FOR TIME STEP   1 IN STRESS PERIOD    1
     9 TOTAL ITERATIONS

 MAXIMUM HEAD CHANGE FOR EACH ITERATION (1 INDICATES THE FIRST INNER ITERATION):

    HEAD CHANGE    HEAD CHANGE    HEAD CHANGE    HEAD CHANGE    HEAD CHANGE 
   LAYER,ROW,COL  LAYER,ROW,COL  LAYER,ROW,COL  LAYER,ROW,COL  LAYER,ROW,COL
 ---------------------------------------------------------------------------
  1 -0.1327E-01  0  0.3483E-02  0  0.5656E-02  0 -0.2966E-02  0  0.4521E-02
   ( 15,  1, 86)  ( 17,  1, 89)  ( 11,  1, 49)  (  8,  1, 12)  (  8,  1, 54)
  0 -0.1972E-02  0  0.1009E-02  0 -0.5779E-03  1 -0.6885E-03
   ( 11,  1, 67)  ( 11,  1, 66)  ( 11,  1, 53)  ( 11,  1, 70)

 MAXIMUM RESIDUAL FOR EACH ITERATION (1 INDICATES THE FIRST INNER ITERATION):

    RESIDUAL       RESIDUAL       RESIDUAL       RESIDUAL       RESIDUAL    
   LAYER,ROW,COL  LAYER,ROW,COL  LAYER,ROW,COL  LAYER,ROW,COL  LAYER,ROW,COL
 ---------------------------------------------------------------------------
  1 -0.1327E+06  0  0.9349E+05  0  0.1953E+05  0  0.1303E+05  0   5009.    
   ( 21,  1, 89)  ( 19,  1, 89)  ( 19,  1, 89)  ( 19,  1, 89)  ( 17,  1, 87)
  0  -2821.      0  -2063.      0  -826.2      1  -698.0    
   ( 22,  1, 87)  ( 22,  1, 87)  ( 22,  1, 87)  ( 22,  1, 87)


 FLOW MODEL IS TRANSIENT
 FLOW MODEL CONTAINS CONSTANT-HEAD CELLS


 MAXIMUM STEPSIZE DURING WHICH ANY PARTICLE CANNOT MOVE MORE THAN ONE CELL
 =  13.21    (WHEN MIN. R.F.=1)  AT K=  17, I=   1, J=  90

 MAXIMUM STEPSIZE WHICH MEETS STABILITY CRITERION OF THE ADVECTION TERM
 (FOR PURE FINITE-DIFFERENCE OPTION, MIXELM=0) 
 =  8.001    (WHEN MIN. R.F.=1)  AT K=  16, I=   1, J=  90


 TOTAL NUMBER OF POINT SOURCES/SINKS PRESENT IN THE FLOW MODEL =    30

 MAXIMUM STEPSIZE WHICH MEETS STABILITY CRITERION OF THE SINK & SOURCE TERM
 =  12.17    (WHEN MIN. R.F.=1)  AT K=  17, I=   1, J=  91

 MAXIMUM STEPSIZE WHICH MEETS STABILITY CRITERION OF THE DISPERSION TERM
 =  4.356    (WHEN MIN. R.F.=1)  AT K=  17, I=   1, J=  90
     1 CALLS TO GCG PACKAGE FOR TRANSPORT TIME STEP 670 IN FLOW TIME STEP   1 STRESS PERIOD   1
     9 TOTAL ITERATIONS
  MAXIMUM CONCENTRATION CHANGES FOR EACH ITERATION:
  MAX. CHANGE LAYER,ROW,COL MAX. CHANGE LAYER,ROW,COL MAX. CHANGE LAYER,ROW,COL MAX. CHANGE LAYER,ROW,COL MAX. CHANGE LAYER,ROW,COL
 ------------------------------------------------------------------------------------------------------------------------------------
   0.4945E-01 ( 20,  1, 87)  0.3330E-02 ( 19,  1, 87)  0.2224E-02 ( 18,  1, 87)  0.2174E-03 ( 16,  1, 88)  0.1403E-03 ( 16,  1, 89)
   0.3023E-04 ( 16,  1, 90)  0.2399E-05 ( 21,  1, 78)  0.2271E-05 ( 21,  1, 78)  0.7876E-06 ( 16,  1, 89)
     1 CALLS TO GCG PACKAGE FOR TRANSPORT TIME STEP 670 IN FLOW TIME STEP   1 STRESS PERIOD   1
     8 TOTAL ITERATIONS
  MAXIMUM CONCENTRATION CHANGES FOR EACH ITERATION:
  MAX. CHANGE LAYER,ROW,COL MAX. CHANGE LAYER,ROW,COL MAX. CHANGE LAYER,ROW,COL MAX. CHANGE LAYER,ROW,COL MAX. CHANGE LAYER,ROW,COL
 ------------------------------------------------------------------------------------------------------------------------------------
   0.5413E-01 ( 20,  1, 87)  0.3685E-02 ( 19,  1, 87)  0.2326E-02 ( 18,  1, 87)  0.2193E-03 ( 16,  1, 88)  0.1345E-03 ( 16,  1, 89)
   0.3500E-04 ( 16,  1, 90)  0.5159E-05 ( 17,  1, 90)  0.5461E-06 ( 16,  1, 89)



 >>>>>>>>>>>>>>>>>>>>>>>>>>>>>>>>>>>>>>>>>>>>>>>>>>>>>>>FOR COMPONENT NO. 01<<<<<<<<<<<<<<<<<<<<<<<<<<<<<<<<<<<<<<<<<<<<<<<<<<<<<<<


                                            -------------------------------------------
                                                      TRANSPORT STEP NO.  670
                                            -------------------------------------------

 TOTAL ELAPSED TIME SINCE BEGINNING OF SIMULATION =   33500.00    D   
 .....................................................................

                     CUMMULATIVE MASS BUDGETS AT END OF TRANSPORT STEP  670, TIME STEP    1, STRESS PERIOD    1
                     ------------------------------------------------------------------------------------------

                                                             IN                           OUT
                                                      ----------------             ----------------
                               CONSTANT CONCENTRATION:    0.000000                    0.000000    
                                        CONSTANT HEAD:   0.1325564E+10              -0.1325356E+10
                                                WELLS:    0.000000                    0.000000    
                                             RECHARGE:    0.000000                    0.000000    
                               1ST/0TH ORDER REACTION:    0.000000                    0.000000    
                                MASS STORAGE (SOLUTE):   0.1853281E+09              -0.1855356E+09
                            ---------------------------------------------------------------------------
                                              [TOTAL]:   0.1510893E+10 KG           -0.1510893E+10 KG  

                                                          NET (IN - OUT):   -236.0680    
                                                   DISCREPANCY (PERCENT):  -0.1562440E-04



 >>>>>>>>>>>>>>>>>>>>>>>>>>>>>>>>>>>>>>>>>>>>>>>>>>>>>>>FOR COMPONENT NO. 02<<<<<<<<<<<<<<<<<<<<<<<<<<<<<<<<<<<<<<<<<<<<<<<<<<<<<<<


                                            -------------------------------------------
                                                      TRANSPORT STEP NO.  670
                                            -------------------------------------------

 TOTAL ELAPSED TIME SINCE BEGINNING OF SIMULATION =   33500.00    D   
 .....................................................................

                     CUMMULATIVE MASS BUDGETS AT END OF TRANSPORT STEP  670, TIME STEP    1, STRESS PERIOD    1
                     ------------------------------------------------------------------------------------------

                                                             IN                           OUT
                                                      ----------------             ----------------
                               CONSTANT CONCENTRATION:    0.000000                    0.000000    
                                        CONSTANT HEAD:    0.000000                  -0.2445404E+12
                                                WELLS:    0.000000                    0.000000    
                                             RECHARGE:    0.000000                    0.000000    
                               1ST/0TH ORDER REACTION:   0.5544250E+12                0.000000    
                                MASS STORAGE (SOLUTE):   0.8653456E+11              -0.3964192E+12
                            ---------------------------------------------------------------------------
                                              [TOTAL]:   0.6409608E+12 KG           -0.6409609E+12 KG  

                                                          NET (IN - OUT):   -83936.59    
                                                   DISCREPANCY (PERCENT):  -0.1309543E-04
 
 SOLVING FOR HEAD 


     2 CALLS TO PCG ROUTINE FOR TIME STEP   1 IN STRESS PERIOD    1
     8 TOTAL ITERATIONS

 MAXIMUM HEAD CHANGE FOR EACH ITERATION (1 INDICATES THE FIRST INNER ITERATION):

    HEAD CHANGE    HEAD CHANGE    HEAD CHANGE    HEAD CHANGE    HEAD CHANGE 
   LAYER,ROW,COL  LAYER,ROW,COL  LAYER,ROW,COL  LAYER,ROW,COL  LAYER,ROW,COL
 ---------------------------------------------------------------------------
  1  0.1351E-01  0 -0.3517E-02  0 -0.2376E-02  0 -0.1023E-01  0  0.1014E-01
   ( 15,  1, 86)  ( 17,  1, 89)  (  8,  1, 12)  ( 11,  1, 52)  ( 11,  1, 52)
  0  0.1076E-02  0 -0.8557E-03  1  0.5400E-03
   ( 11,  1, 37)  ( 11,  1, 50)  ( 11,  1, 50)

 MAXIMUM RESIDUAL FOR EACH ITERATION (1 INDICATES THE FIRST INNER ITERATION):

    RESIDUAL       RESIDUAL       RESIDUAL       RESIDUAL       RESIDUAL    
   LAYER,ROW,COL  LAYER,ROW,COL  LAYER,ROW,COL  LAYER,ROW,COL  LAYER,ROW,COL
 ---------------------------------------------------------------------------
  1  0.1302E+06  0 -0.9050E+05  0 -0.8917E+05  0 -0.2943E+05  0  -5443.    
   ( 21,  1, 89)  ( 19,  1, 89)  ( 19,  1, 89)  ( 19,  1, 89)  ( 17,  1, 87)
  0   2919.      0   2585.      1   2165.    
   ( 22,  1, 87)  ( 22,  1, 87)  ( 22,  1, 87)


 FLOW MODEL IS TRANSIENT
 FLOW MODEL CONTAINS CONSTANT-HEAD CELLS


 MAXIMUM STEPSIZE DURING WHICH ANY PARTICLE CANNOT MOVE MORE THAN ONE CELL
 =  12.85    (WHEN MIN. R.F.=1)  AT K=  17, I=   1, J=  90

 MAXIMUM STEPSIZE WHICH MEETS STABILITY CRITERION OF THE ADVECTION TERM
 (FOR PURE FINITE-DIFFERENCE OPTION, MIXELM=0) 
 =  8.027    (WHEN MIN. R.F.=1)  AT K=  16, I=   1, J=  90


 TOTAL NUMBER OF POINT SOURCES/SINKS PRESENT IN THE FLOW MODEL =    30

 MAXIMUM STEPSIZE WHICH MEETS STABILITY CRITERION OF THE SINK & SOURCE TERM
 =  12.20    (WHEN MIN. R.F.=1)  AT K=  17, I=   1, J=  91

 MAXIMUM STEPSIZE WHICH MEETS STABILITY CRITERION OF THE DISPERSION TERM
 =  4.034    (WHEN MIN. R.F.=1)  AT K=  17, I=   1, J=  90
     1 CALLS TO GCG PACKAGE FOR TRANSPORT TIME STEP 671 IN FLOW TIME STEP   1 STRESS PERIOD   1
     8 TOTAL ITERATIONS
     1 CALLS TO GCG PACKAGE FOR TRANSPORT TIME STEP 671 IN FLOW TIME STEP   1 STRESS PERIOD   1
     8 TOTAL ITERATIONS
 
 SOLVING FOR HEAD 


     2 CALLS TO PCG ROUTINE FOR TIME STEP   1 IN STRESS PERIOD    1
     9 TOTAL ITERATIONS

 MAXIMUM HEAD CHANGE FOR EACH ITERATION (1 INDICATES THE FIRST INNER ITERATION):

    HEAD CHANGE    HEAD CHANGE    HEAD CHANGE    HEAD CHANGE    HEAD CHANGE 
   LAYER,ROW,COL  LAYER,ROW,COL  LAYER,ROW,COL  LAYER,ROW,COL  LAYER,ROW,COL
 ---------------------------------------------------------------------------
  1 -0.1369E-01  0  0.6734E-02  0  0.3354E-02  0 -0.9745E-02  0 -0.6423E-02
   ( 15,  1, 86)  ( 11,  1, 50)  (  7,  1, 12)  ( 11,  1, 49)  (  7,  1, 53)
  0  0.2308E-02  0 -0.1312E-02  0  0.7655E-03  1 -0.7129E-03
   ( 11,  1, 51)  ( 11,  1, 51)  ( 11,  1, 57)  ( 11,  1, 57)

 MAXIMUM RESIDUAL FOR EACH ITERATION (1 INDICATES THE FIRST INNER ITERATION):

    RESIDUAL       RESIDUAL       RESIDUAL       RESIDUAL       RESIDUAL    
   LAYER,ROW,COL  LAYER,ROW,COL  LAYER,ROW,COL  LAYER,ROW,COL  LAYER,ROW,COL
 ---------------------------------------------------------------------------
  1 -0.1346E+06  0  0.9575E+05  0  0.9478E+05  0  0.7552E+05  0   5962.    
   ( 21,  1, 89)  ( 19,  1, 89)  ( 19,  1, 89)  ( 19,  1, 89)  ( 17,  1, 87)
  0  -2796.      0  -2623.      0  -922.3      1  -792.2    
   ( 22,  1, 87)  ( 22,  1, 87)  ( 22,  1, 87)  ( 22,  1, 87)


 FLOW MODEL IS TRANSIENT
 FLOW MODEL CONTAINS CONSTANT-HEAD CELLS


 MAXIMUM STEPSIZE DURING WHICH ANY PARTICLE CANNOT MOVE MORE THAN ONE CELL
 =  13.14    (WHEN MIN. R.F.=1)  AT K=  17, I=   1, J=  90

 MAXIMUM STEPSIZE WHICH MEETS STABILITY CRITERION OF THE ADVECTION TERM
 (FOR PURE FINITE-DIFFERENCE OPTION, MIXELM=0) 
 =  7.970    (WHEN MIN. R.F.=1)  AT K=  16, I=   1, J=  90


 TOTAL NUMBER OF POINT SOURCES/SINKS PRESENT IN THE FLOW MODEL =    30

 MAXIMUM STEPSIZE WHICH MEETS STABILITY CRITERION OF THE SINK & SOURCE TERM
 =  12.08    (WHEN MIN. R.F.=1)  AT K=  17, I=   1, J=  91

 MAXIMUM STEPSIZE WHICH MEETS STABILITY CRITERION OF THE DISPERSION TERM
 =  4.326    (WHEN MIN. R.F.=1)  AT K=  17, I=   1, J=  90
     1 CALLS TO GCG PACKAGE FOR TRANSPORT TIME STEP 672 IN FLOW TIME STEP   1 STRESS PERIOD   1
     9 TOTAL ITERATIONS
     1 CALLS TO GCG PACKAGE FOR TRANSPORT TIME STEP 672 IN FLOW TIME STEP   1 STRESS PERIOD   1
     8 TOTAL ITERATIONS
 
 SOLVING FOR HEAD 


     2 CALLS TO PCG ROUTINE FOR TIME STEP   1 IN STRESS PERIOD    1
     9 TOTAL ITERATIONS

 MAXIMUM HEAD CHANGE FOR EACH ITERATION (1 INDICATES THE FIRST INNER ITERATION):

    HEAD CHANGE    HEAD CHANGE    HEAD CHANGE    HEAD CHANGE    HEAD CHANGE 
   LAYER,ROW,COL  LAYER,ROW,COL  LAYER,ROW,COL  LAYER,ROW,COL  LAYER,ROW,COL
 ---------------------------------------------------------------------------
  1  0.1366E-01  0 -0.3968E-02  0 -0.3270E-02  0  0.1452E-01  0 -0.1415E-01
   ( 15,  1, 86)  ( 17,  1, 89)  (  8,  1, 12)  ( 11,  1, 57)  ( 11,  1, 57)
  0 -0.1645E-02  0 -0.1215E-02  0 -0.5832E-03  1  0.6626E-03
   ( 11,  1, 68)  ( 11,  1, 50)  ( 11,  1, 60)  ( 11,  1, 70)

 MAXIMUM RESIDUAL FOR EACH ITERATION (1 INDICATES THE FIRST INNER ITERATION):

    RESIDUAL       RESIDUAL       RESIDUAL       RESIDUAL       RESIDUAL    
   LAYER,ROW,COL  LAYER,ROW,COL  LAYER,ROW,COL  LAYER,ROW,COL  LAYER,ROW,COL
 ---------------------------------------------------------------------------
  1  0.1332E+06  0 -0.9496E+05  0 -0.9403E+05  0 -0.2832E+05  0  -5139.    
   ( 21,  1, 89)  ( 19,  1, 89)  ( 19,  1, 89)  ( 19,  1, 89)  ( 17,  1, 87)
  0   2771.      0   2307.      0   728.4      1   608.6    
   ( 22,  1, 87)  ( 22,  1, 87)  ( 22,  1, 87)  ( 22,  1, 87)


 FLOW MODEL IS TRANSIENT
 FLOW MODEL CONTAINS CONSTANT-HEAD CELLS


 MAXIMUM STEPSIZE DURING WHICH ANY PARTICLE CANNOT MOVE MORE THAN ONE CELL
 =  12.84    (WHEN MIN. R.F.=1)  AT K=  17, I=   1, J=  90

 MAXIMUM STEPSIZE WHICH MEETS STABILITY CRITERION OF THE ADVECTION TERM
 (FOR PURE FINITE-DIFFERENCE OPTION, MIXELM=0) 
 =  8.025    (WHEN MIN. R.F.=1)  AT K=  16, I=   1, J=  90


 TOTAL NUMBER OF POINT SOURCES/SINKS PRESENT IN THE FLOW MODEL =    30

 MAXIMUM STEPSIZE WHICH MEETS STABILITY CRITERION OF THE SINK & SOURCE TERM
 =  12.17    (WHEN MIN. R.F.=1)  AT K=  17, I=   1, J=  91

 MAXIMUM STEPSIZE WHICH MEETS STABILITY CRITERION OF THE DISPERSION TERM
 =  4.020    (WHEN MIN. R.F.=1)  AT K=  17, I=   1, J=  90
     1 CALLS TO GCG PACKAGE FOR TRANSPORT TIME STEP 673 IN FLOW TIME STEP   1 STRESS PERIOD   1
     8 TOTAL ITERATIONS
     1 CALLS TO GCG PACKAGE FOR TRANSPORT TIME STEP 673 IN FLOW TIME STEP   1 STRESS PERIOD   1
     8 TOTAL ITERATIONS
 
 SOLVING FOR HEAD 


     2 CALLS TO PCG ROUTINE FOR TIME STEP   1 IN STRESS PERIOD    1
     9 TOTAL ITERATIONS

 MAXIMUM HEAD CHANGE FOR EACH ITERATION (1 INDICATES THE FIRST INNER ITERATION):

    HEAD CHANGE    HEAD CHANGE    HEAD CHANGE    HEAD CHANGE    HEAD CHANGE 
   LAYER,ROW,COL  LAYER,ROW,COL  LAYER,ROW,COL  LAYER,ROW,COL  LAYER,ROW,COL
 ---------------------------------------------------------------------------
  1 -0.1333E-01  0  0.3597E-02  0  0.2284E-02  0  0.7900E-02  0 -0.9378E-02
   ( 15,  1, 86)  ( 17,  1, 89)  (  8,  1, 12)  ( 11,  1, 49)  ( 11,  1, 50)
  0  0.2273E-02  0  0.1625E-02  0  0.7870E-03  1 -0.5623E-03
   ( 11,  1, 51)  ( 11,  1, 66)  ( 11,  1, 59)  ( 11,  1, 56)

 MAXIMUM RESIDUAL FOR EACH ITERATION (1 INDICATES THE FIRST INNER ITERATION):

    RESIDUAL       RESIDUAL       RESIDUAL       RESIDUAL       RESIDUAL    
   LAYER,ROW,COL  LAYER,ROW,COL  LAYER,ROW,COL  LAYER,ROW,COL  LAYER,ROW,COL
 ---------------------------------------------------------------------------
  1 -0.1284E+06  0  0.8917E+05  0  0.8747E+05  0  0.2097E+05  0   5156.    
   ( 21,  1, 89)  ( 19,  1, 89)  ( 19,  1, 89)  ( 19,  1, 89)  ( 17,  1, 87)
  0  -2871.      0  -2392.      0  -852.8      1  -746.9    
   ( 22,  1, 87)  ( 22,  1, 87)  ( 22,  1, 87)  ( 22,  1, 87)


 FLOW MODEL IS TRANSIENT
 FLOW MODEL CONTAINS CONSTANT-HEAD CELLS


 MAXIMUM STEPSIZE DURING WHICH ANY PARTICLE CANNOT MOVE MORE THAN ONE CELL
 =  13.21    (WHEN MIN. R.F.=1)  AT K=  17, I=   1, J=  90

 MAXIMUM STEPSIZE WHICH MEETS STABILITY CRITERION OF THE ADVECTION TERM
 (FOR PURE FINITE-DIFFERENCE OPTION, MIXELM=0) 
 =  8.002    (WHEN MIN. R.F.=1)  AT K=  16, I=   1, J=  90


 TOTAL NUMBER OF POINT SOURCES/SINKS PRESENT IN THE FLOW MODEL =    30

 MAXIMUM STEPSIZE WHICH MEETS STABILITY CRITERION OF THE SINK & SOURCE TERM
 =  12.17    (WHEN MIN. R.F.=1)  AT K=  17, I=   1, J=  91

 MAXIMUM STEPSIZE WHICH MEETS STABILITY CRITERION OF THE DISPERSION TERM
 =  4.361    (WHEN MIN. R.F.=1)  AT K=  17, I=   1, J=  90
     1 CALLS TO GCG PACKAGE FOR TRANSPORT TIME STEP 674 IN FLOW TIME STEP   1 STRESS PERIOD   1
     9 TOTAL ITERATIONS
     1 CALLS TO GCG PACKAGE FOR TRANSPORT TIME STEP 674 IN FLOW TIME STEP   1 STRESS PERIOD   1
     8 TOTAL ITERATIONS
 
 SOLVING FOR HEAD 


     2 CALLS TO PCG ROUTINE FOR TIME STEP   1 IN STRESS PERIOD    1
     9 TOTAL ITERATIONS

 MAXIMUM HEAD CHANGE FOR EACH ITERATION (1 INDICATES THE FIRST INNER ITERATION):

    HEAD CHANGE    HEAD CHANGE    HEAD CHANGE    HEAD CHANGE    HEAD CHANGE 
   LAYER,ROW,COL  LAYER,ROW,COL  LAYER,ROW,COL  LAYER,ROW,COL  LAYER,ROW,COL
 ---------------------------------------------------------------------------
  1  0.1342E-01  0 -0.3660E-02  0 -0.2303E-02  0 -0.8785E-02  0  0.8531E-02
   ( 15,  1, 86)  ( 17,  1, 89)  (  7,  1, 12)  ( 11,  1, 69)  ( 11,  1, 68)
  0  0.1281E-02  0 -0.1040E-02  0 -0.9109E-03  1  0.8957E-03
   ( 11,  1, 49)  ( 11,  1, 70)  ( 11,  1, 60)  ( 11,  1, 70)

 MAXIMUM RESIDUAL FOR EACH ITERATION (1 INDICATES THE FIRST INNER ITERATION):

    RESIDUAL       RESIDUAL       RESIDUAL       RESIDUAL       RESIDUAL    
   LAYER,ROW,COL  LAYER,ROW,COL  LAYER,ROW,COL  LAYER,ROW,COL  LAYER,ROW,COL
 ---------------------------------------------------------------------------
  1  0.1308E+06  0 -0.9151E+05  0 -0.8995E+05  0 -0.3325E+05  0  -5866.    
   ( 21,  1, 89)  ( 19,  1, 89)  ( 19,  1, 89)  ( 19,  1, 89)  ( 17,  1, 87)
  0   2885.      0   2550.      0   854.2      1   715.9    
   ( 22,  1, 87)  ( 22,  1, 87)  ( 22,  1, 87)  ( 22,  1, 87)


 FLOW MODEL IS TRANSIENT
 FLOW MODEL CONTAINS CONSTANT-HEAD CELLS


 MAXIMUM STEPSIZE DURING WHICH ANY PARTICLE CANNOT MOVE MORE THAN ONE CELL
 =  12.87    (WHEN MIN. R.F.=1)  AT K=  17, I=   1, J=  90

 MAXIMUM STEPSIZE WHICH MEETS STABILITY CRITERION OF THE ADVECTION TERM
 (FOR PURE FINITE-DIFFERENCE OPTION, MIXELM=0) 
 =  8.036    (WHEN MIN. R.F.=1)  AT K=  16, I=   1, J=  90


 TOTAL NUMBER OF POINT SOURCES/SINKS PRESENT IN THE FLOW MODEL =    30

 MAXIMUM STEPSIZE WHICH MEETS STABILITY CRITERION OF THE SINK & SOURCE TERM
 =  12.21    (WHEN MIN. R.F.=1)  AT K=  17, I=   1, J=  91

 MAXIMUM STEPSIZE WHICH MEETS STABILITY CRITERION OF THE DISPERSION TERM
 =  4.037    (WHEN MIN. R.F.=1)  AT K=  17, I=   1, J=  90
     1 CALLS TO GCG PACKAGE FOR TRANSPORT TIME STEP 675 IN FLOW TIME STEP   1 STRESS PERIOD   1
     8 TOTAL ITERATIONS
  MAXIMUM CONCENTRATION CHANGES FOR EACH ITERATION:
  MAX. CHANGE LAYER,ROW,COL MAX. CHANGE LAYER,ROW,COL MAX. CHANGE LAYER,ROW,COL MAX. CHANGE LAYER,ROW,COL MAX. CHANGE LAYER,ROW,COL
 ------------------------------------------------------------------------------------------------------------------------------------
   0.5266E-01 ( 20,  1, 87)  0.4161E-02 ( 19,  1, 89)  0.2161E-02 ( 18,  1, 86)  0.4683E-03 ( 20,  1, 89)  0.9663E-04 ( 16,  1, 89)
   0.1979E-04 ( 20,  1, 89)  0.1729E-04 ( 16,  1, 90)  0.7640E-06 ( 17,  1, 90)
     1 CALLS TO GCG PACKAGE FOR TRANSPORT TIME STEP 675 IN FLOW TIME STEP   1 STRESS PERIOD   1
     8 TOTAL ITERATIONS
  MAXIMUM CONCENTRATION CHANGES FOR EACH ITERATION:
  MAX. CHANGE LAYER,ROW,COL MAX. CHANGE LAYER,ROW,COL MAX. CHANGE LAYER,ROW,COL MAX. CHANGE LAYER,ROW,COL MAX. CHANGE LAYER,ROW,COL
 ------------------------------------------------------------------------------------------------------------------------------------
   0.5816E-01 ( 20,  1, 87)  0.4698E-02 ( 19,  1, 89)  0.2145E-02 ( 18,  1, 86)  0.4301E-03 ( 20,  1, 89)  0.1078E-03 ( 16,  1, 89)
   0.1731E-04 ( 23,  1, 87)  0.1562E-04 ( 16,  1, 90)  0.8587E-06 ( 17,  1, 90)
 
 SOLVING FOR HEAD 


     2 CALLS TO PCG ROUTINE FOR TIME STEP   1 IN STRESS PERIOD    1
     9 TOTAL ITERATIONS

 MAXIMUM HEAD CHANGE FOR EACH ITERATION (1 INDICATES THE FIRST INNER ITERATION):

    HEAD CHANGE    HEAD CHANGE    HEAD CHANGE    HEAD CHANGE    HEAD CHANGE 
   LAYER,ROW,COL  LAYER,ROW,COL  LAYER,ROW,COL  LAYER,ROW,COL  LAYER,ROW,COL
 ---------------------------------------------------------------------------
  1 -0.1349E-01  0  0.3638E-02  0  0.2346E-02  0  0.8801E-02  0  0.8733E-02
   ( 15,  1, 86)  ( 17,  1, 89)  (  8,  1, 12)  ( 11,  1, 66)  ( 11,  1, 59)
  0 -0.2440E-02  0  0.1528E-02  0  0.6359E-03  1 -0.6106E-03
   ( 11,  1, 56)  ( 11,  1, 65)  ( 11,  1, 57)  ( 11,  1, 56)

 MAXIMUM RESIDUAL FOR EACH ITERATION (1 INDICATES THE FIRST INNER ITERATION):

    RESIDUAL       RESIDUAL       RESIDUAL       RESIDUAL       RESIDUAL    
   LAYER,ROW,COL  LAYER,ROW,COL  LAYER,ROW,COL  LAYER,ROW,COL  LAYER,ROW,COL
 ---------------------------------------------------------------------------
  1 -0.1323E+06  0  0.9299E+05  0  0.9130E+05  0  0.2272E+05  0   5197.    
   ( 21,  1, 89)  ( 19,  1, 89)  ( 19,  1, 89)  ( 19,  1, 89)  ( 17,  1, 87)
  0  -2838.      0  -2472.      0  -1053.      1  -932.3    
   ( 22,  1, 87)  ( 22,  1, 87)  ( 22,  1, 87)  ( 22,  1, 87)


 FLOW MODEL IS TRANSIENT
 FLOW MODEL CONTAINS CONSTANT-HEAD CELLS


 MAXIMUM STEPSIZE DURING WHICH ANY PARTICLE CANNOT MOVE MORE THAN ONE CELL
 =  13.21    (WHEN MIN. R.F.=1)  AT K=  17, I=   1, J=  90

 MAXIMUM STEPSIZE WHICH MEETS STABILITY CRITERION OF THE ADVECTION TERM
 (FOR PURE FINITE-DIFFERENCE OPTION, MIXELM=0) 
 =  8.001    (WHEN MIN. R.F.=1)  AT K=  16, I=   1, J=  90


 TOTAL NUMBER OF POINT SOURCES/SINKS PRESENT IN THE FLOW MODEL =    30

 MAXIMUM STEPSIZE WHICH MEETS STABILITY CRITERION OF THE SINK & SOURCE TERM
 =  12.17    (WHEN MIN. R.F.=1)  AT K=  17, I=   1, J=  91

 MAXIMUM STEPSIZE WHICH MEETS STABILITY CRITERION OF THE DISPERSION TERM
 =  4.354    (WHEN MIN. R.F.=1)  AT K=  17, I=   1, J=  90
     1 CALLS TO GCG PACKAGE FOR TRANSPORT TIME STEP 676 IN FLOW TIME STEP   1 STRESS PERIOD   1
     9 TOTAL ITERATIONS
     1 CALLS TO GCG PACKAGE FOR TRANSPORT TIME STEP 676 IN FLOW TIME STEP   1 STRESS PERIOD   1
     8 TOTAL ITERATIONS
 
 SOLVING FOR HEAD 


     2 CALLS TO PCG ROUTINE FOR TIME STEP   1 IN STRESS PERIOD    1
     7 TOTAL ITERATIONS

 MAXIMUM HEAD CHANGE FOR EACH ITERATION (1 INDICATES THE FIRST INNER ITERATION):

    HEAD CHANGE    HEAD CHANGE    HEAD CHANGE    HEAD CHANGE    HEAD CHANGE 
   LAYER,ROW,COL  LAYER,ROW,COL  LAYER,ROW,COL  LAYER,ROW,COL  LAYER,ROW,COL
 ---------------------------------------------------------------------------
  1  0.1355E-01  0 -0.3672E-02  0 -0.2428E-02  0 -0.8090E-02  0  0.8119E-02
   ( 15,  1, 86)  ( 17,  1, 89)  (  8,  1, 12)  (  9,  1, 55)  (  8,  1, 54)
  0  0.9992E-03  1 -0.9926E-03
   ( 11,  1, 36)  ( 11,  1, 70)

 MAXIMUM RESIDUAL FOR EACH ITERATION (1 INDICATES THE FIRST INNER ITERATION):

    RESIDUAL       RESIDUAL       RESIDUAL       RESIDUAL       RESIDUAL    
   LAYER,ROW,COL  LAYER,ROW,COL  LAYER,ROW,COL  LAYER,ROW,COL  LAYER,ROW,COL
 ---------------------------------------------------------------------------
  1  0.1315E+06  0 -0.9234E+05  0 -0.9104E+05  0 -0.3452E+05  0  -5826.    
   ( 21,  1, 89)  ( 19,  1, 89)  ( 19,  1, 89)  ( 19,  1, 89)  ( 17,  1, 87)
  0   2903.      1   2454.    
   ( 22,  1, 87)  ( 22,  1, 87)


 FLOW MODEL IS TRANSIENT
 FLOW MODEL CONTAINS CONSTANT-HEAD CELLS


 MAXIMUM STEPSIZE DURING WHICH ANY PARTICLE CANNOT MOVE MORE THAN ONE CELL
 =  12.86    (WHEN MIN. R.F.=1)  AT K=  17, I=   1, J=  90

 MAXIMUM STEPSIZE WHICH MEETS STABILITY CRITERION OF THE ADVECTION TERM
 (FOR PURE FINITE-DIFFERENCE OPTION, MIXELM=0) 
 =  8.032    (WHEN MIN. R.F.=1)  AT K=  16, I=   1, J=  90


 TOTAL NUMBER OF POINT SOURCES/SINKS PRESENT IN THE FLOW MODEL =    30

 MAXIMUM STEPSIZE WHICH MEETS STABILITY CRITERION OF THE SINK & SOURCE TERM
 =  12.21    (WHEN MIN. R.F.=1)  AT K=  17, I=   1, J=  91

 MAXIMUM STEPSIZE WHICH MEETS STABILITY CRITERION OF THE DISPERSION TERM
 =  4.033    (WHEN MIN. R.F.=1)  AT K=  17, I=   1, J=  90
     1 CALLS TO GCG PACKAGE FOR TRANSPORT TIME STEP 677 IN FLOW TIME STEP   1 STRESS PERIOD   1
     8 TOTAL ITERATIONS
     1 CALLS TO GCG PACKAGE FOR TRANSPORT TIME STEP 677 IN FLOW TIME STEP   1 STRESS PERIOD   1
     8 TOTAL ITERATIONS
 
 SOLVING FOR HEAD 


     2 CALLS TO PCG ROUTINE FOR TIME STEP   1 IN STRESS PERIOD    1
     9 TOTAL ITERATIONS

 MAXIMUM HEAD CHANGE FOR EACH ITERATION (1 INDICATES THE FIRST INNER ITERATION):

    HEAD CHANGE    HEAD CHANGE    HEAD CHANGE    HEAD CHANGE    HEAD CHANGE 
   LAYER,ROW,COL  LAYER,ROW,COL  LAYER,ROW,COL  LAYER,ROW,COL  LAYER,ROW,COL
 ---------------------------------------------------------------------------
  1 -0.1382E-01  0  0.9032E-02  0  0.4673E-02  0 -0.1405E-01  0  0.9330E-02
   ( 15,  1, 86)  ( 11,  1, 56)  (  8,  1, 12)  ( 11,  1, 56)  ( 11,  1, 56)
  0 -0.2076E-02  0  0.1248E-02  0  0.9931E-03  1 -0.8316E-03
   (  8,  1, 43)  ( 11,  1, 68)  ( 11,  1, 49)  ( 11,  1, 49)

 MAXIMUM RESIDUAL FOR EACH ITERATION (1 INDICATES THE FIRST INNER ITERATION):

    RESIDUAL       RESIDUAL       RESIDUAL       RESIDUAL       RESIDUAL    
   LAYER,ROW,COL  LAYER,ROW,COL  LAYER,ROW,COL  LAYER,ROW,COL  LAYER,ROW,COL
 ---------------------------------------------------------------------------
  1 -0.1351E+06  0  0.9556E+05  0  0.9491E+05  0  0.7286E+05  0   5633.    
   ( 21,  1, 89)  ( 19,  1, 89)  ( 19,  1, 89)  ( 19,  1, 89)  ( 17,  1, 87)
  0  -2773.      0  -2634.      0  -1413.      1  -1261.    
   ( 22,  1, 87)  ( 22,  1, 87)  ( 22,  1, 87)  ( 22,  1, 87)


 FLOW MODEL IS TRANSIENT
 FLOW MODEL CONTAINS CONSTANT-HEAD CELLS


 MAXIMUM STEPSIZE DURING WHICH ANY PARTICLE CANNOT MOVE MORE THAN ONE CELL
 =  13.14    (WHEN MIN. R.F.=1)  AT K=  17, I=   1, J=  90

 MAXIMUM STEPSIZE WHICH MEETS STABILITY CRITERION OF THE ADVECTION TERM
 (FOR PURE FINITE-DIFFERENCE OPTION, MIXELM=0) 
 =  7.973    (WHEN MIN. R.F.=1)  AT K=  16, I=   1, J=  90


 TOTAL NUMBER OF POINT SOURCES/SINKS PRESENT IN THE FLOW MODEL =    30

 MAXIMUM STEPSIZE WHICH MEETS STABILITY CRITERION OF THE SINK & SOURCE TERM
 =  12.08    (WHEN MIN. R.F.=1)  AT K=  17, I=   1, J=  91

 MAXIMUM STEPSIZE WHICH MEETS STABILITY CRITERION OF THE DISPERSION TERM
 =  4.331    (WHEN MIN. R.F.=1)  AT K=  17, I=   1, J=  90
     1 CALLS TO GCG PACKAGE FOR TRANSPORT TIME STEP 678 IN FLOW TIME STEP   1 STRESS PERIOD   1
    10 TOTAL ITERATIONS
     1 CALLS TO GCG PACKAGE FOR TRANSPORT TIME STEP 678 IN FLOW TIME STEP   1 STRESS PERIOD   1
     8 TOTAL ITERATIONS
 
 SOLVING FOR HEAD 


     2 CALLS TO PCG ROUTINE FOR TIME STEP   1 IN STRESS PERIOD    1
     8 TOTAL ITERATIONS

 MAXIMUM HEAD CHANGE FOR EACH ITERATION (1 INDICATES THE FIRST INNER ITERATION):

    HEAD CHANGE    HEAD CHANGE    HEAD CHANGE    HEAD CHANGE    HEAD CHANGE 
   LAYER,ROW,COL  LAYER,ROW,COL  LAYER,ROW,COL  LAYER,ROW,COL  LAYER,ROW,COL
 ---------------------------------------------------------------------------
  1  0.1375E-01  0 -0.4171E-02  0 -0.3767E-02  0  0.1108E-01  0 -0.1054E-01
   ( 15,  1, 86)  ( 17,  1, 89)  (  8,  1, 12)  ( 11,  1, 49)  ( 11,  1, 49)
  0 -0.1630E-02  0  0.6374E-03  1 -0.5986E-03
   ( 11,  1, 68)  ( 11,  1, 49)  ( 11,  1, 50)

 MAXIMUM RESIDUAL FOR EACH ITERATION (1 INDICATES THE FIRST INNER ITERATION):

    RESIDUAL       RESIDUAL       RESIDUAL       RESIDUAL       RESIDUAL    
   LAYER,ROW,COL  LAYER,ROW,COL  LAYER,ROW,COL  LAYER,ROW,COL  LAYER,ROW,COL
 ---------------------------------------------------------------------------
  1  0.1346E+06  0 -0.9636E+05  0 -0.9553E+05  0 -0.3012E+05  0   5706.    
   ( 21,  1, 89)  ( 19,  1, 89)  ( 19,  1, 89)  ( 19,  1, 89)  ( 17,  1, 88)
  0   2755.      0   2491.      1   1945.    
   ( 22,  1, 87)  ( 22,  1, 87)  ( 22,  1, 87)


 FLOW MODEL IS TRANSIENT
 FLOW MODEL CONTAINS CONSTANT-HEAD CELLS


 MAXIMUM STEPSIZE DURING WHICH ANY PARTICLE CANNOT MOVE MORE THAN ONE CELL
 =  12.83    (WHEN MIN. R.F.=1)  AT K=  17, I=   1, J=  90

 MAXIMUM STEPSIZE WHICH MEETS STABILITY CRITERION OF THE ADVECTION TERM
 (FOR PURE FINITE-DIFFERENCE OPTION, MIXELM=0) 
 =  8.028    (WHEN MIN. R.F.=1)  AT K=  16, I=   1, J=  90


 TOTAL NUMBER OF POINT SOURCES/SINKS PRESENT IN THE FLOW MODEL =    30

 MAXIMUM STEPSIZE WHICH MEETS STABILITY CRITERION OF THE SINK & SOURCE TERM
 =  12.18    (WHEN MIN. R.F.=1)  AT K=  17, I=   1, J=  91

 MAXIMUM STEPSIZE WHICH MEETS STABILITY CRITERION OF THE DISPERSION TERM
 =  4.018    (WHEN MIN. R.F.=1)  AT K=  17, I=   1, J=  90
     1 CALLS TO GCG PACKAGE FOR TRANSPORT TIME STEP 679 IN FLOW TIME STEP   1 STRESS PERIOD   1
     8 TOTAL ITERATIONS
     1 CALLS TO GCG PACKAGE FOR TRANSPORT TIME STEP 679 IN FLOW TIME STEP   1 STRESS PERIOD   1
     8 TOTAL ITERATIONS
 
 SOLVING FOR HEAD 


     2 CALLS TO PCG ROUTINE FOR TIME STEP   1 IN STRESS PERIOD    1
     9 TOTAL ITERATIONS

 MAXIMUM HEAD CHANGE FOR EACH ITERATION (1 INDICATES THE FIRST INNER ITERATION):

    HEAD CHANGE    HEAD CHANGE    HEAD CHANGE    HEAD CHANGE    HEAD CHANGE 
   LAYER,ROW,COL  LAYER,ROW,COL  LAYER,ROW,COL  LAYER,ROW,COL  LAYER,ROW,COL
 ---------------------------------------------------------------------------
  1 -0.1369E-01  0 -0.8211E-02  0  0.4566E-02  0  0.9391E-02  0 -0.7100E-02
   ( 15,  1, 86)  (  6,  1, 39)  (  7,  1, 12)  (  8,  1, 41)  (  6,  1, 42)
  0 -0.4057E-02  0  0.1516E-02  0  0.9266E-03  1 -0.7773E-03
   ( 11,  1, 49)  ( 11,  1, 50)  ( 11,  1, 70)  ( 11,  1, 70)

 MAXIMUM RESIDUAL FOR EACH ITERATION (1 INDICATES THE FIRST INNER ITERATION):

    RESIDUAL       RESIDUAL       RESIDUAL       RESIDUAL       RESIDUAL    
   LAYER,ROW,COL  LAYER,ROW,COL  LAYER,ROW,COL  LAYER,ROW,COL  LAYER,ROW,COL
 ---------------------------------------------------------------------------
  1 -0.1313E+06  0  0.9159E+05  0  0.9100E+05  0  0.7239E+05  0   6377.    
   ( 21,  1, 89)  ( 19,  1, 89)  ( 19,  1, 89)  ( 19,  1, 89)  ( 17,  1, 87)
  0  -3192.      0  -2626.      0  -1286.      1  -1154.    
   ( 17,  1, 88)  ( 22,  1, 87)  ( 22,  1, 87)  ( 22,  1, 87)


 FLOW MODEL IS TRANSIENT
 FLOW MODEL CONTAINS CONSTANT-HEAD CELLS


 MAXIMUM STEPSIZE DURING WHICH ANY PARTICLE CANNOT MOVE MORE THAN ONE CELL
 =  13.19    (WHEN MIN. R.F.=1)  AT K=  17, I=   1, J=  90

 MAXIMUM STEPSIZE WHICH MEETS STABILITY CRITERION OF THE ADVECTION TERM
 (FOR PURE FINITE-DIFFERENCE OPTION, MIXELM=0) 
 =  7.989    (WHEN MIN. R.F.=1)  AT K=  16, I=   1, J=  90


 TOTAL NUMBER OF POINT SOURCES/SINKS PRESENT IN THE FLOW MODEL =    30

 MAXIMUM STEPSIZE WHICH MEETS STABILITY CRITERION OF THE SINK & SOURCE TERM
 =  12.13    (WHEN MIN. R.F.=1)  AT K=  17, I=   1, J=  91

 MAXIMUM STEPSIZE WHICH MEETS STABILITY CRITERION OF THE DISPERSION TERM
 =  4.361    (WHEN MIN. R.F.=1)  AT K=  17, I=   1, J=  90
     1 CALLS TO GCG PACKAGE FOR TRANSPORT TIME STEP 680 IN FLOW TIME STEP   1 STRESS PERIOD   1
    10 TOTAL ITERATIONS
  MAXIMUM CONCENTRATION CHANGES FOR EACH ITERATION:
  MAX. CHANGE LAYER,ROW,COL MAX. CHANGE LAYER,ROW,COL MAX. CHANGE LAYER,ROW,COL MAX. CHANGE LAYER,ROW,COL MAX. CHANGE LAYER,ROW,COL
 ------------------------------------------------------------------------------------------------------------------------------------
   0.4875E-01 ( 20,  1, 87)  0.3259E-02 ( 19,  1, 87)  0.2174E-02 ( 18,  1, 87)  0.2124E-03 ( 16,  1, 88)  0.1424E-03 ( 16,  1, 89)
   0.2829E-04 ( 16,  1, 90)  0.1242E-05 ( 21,  1, 78)  0.4939E-05 ( 21,  1, 78)  0.1205E-05 ( 16,  1, 89)  0.1285E-06 ( 17,  1, 89)
     1 CALLS TO GCG PACKAGE FOR TRANSPORT TIME STEP 680 IN FLOW TIME STEP   1 STRESS PERIOD   1
     8 TOTAL ITERATIONS
  MAXIMUM CONCENTRATION CHANGES FOR EACH ITERATION:
  MAX. CHANGE LAYER,ROW,COL MAX. CHANGE LAYER,ROW,COL MAX. CHANGE LAYER,ROW,COL MAX. CHANGE LAYER,ROW,COL MAX. CHANGE LAYER,ROW,COL
 ------------------------------------------------------------------------------------------------------------------------------------
   0.5428E-01 ( 20,  1, 87)  0.3629E-02 ( 19,  1, 87)  0.2300E-02 ( 18,  1, 87)  0.2211E-03 ( 16,  1, 88)  0.1338E-03 ( 17,  1, 89)
   0.3472E-04 ( 16,  1, 90)  0.4910E-05 ( 17,  1, 90)  0.6000E-06 ( 16,  1, 89)



 >>>>>>>>>>>>>>>>>>>>>>>>>>>>>>>>>>>>>>>>>>>>>>>>>>>>>>>FOR COMPONENT NO. 01<<<<<<<<<<<<<<<<<<<<<<<<<<<<<<<<<<<<<<<<<<<<<<<<<<<<<<<


                                            -------------------------------------------
                                                      TRANSPORT STEP NO.  680
                                            -------------------------------------------

 TOTAL ELAPSED TIME SINCE BEGINNING OF SIMULATION =   34000.00    D   
 .....................................................................

                     CUMMULATIVE MASS BUDGETS AT END OF TRANSPORT STEP  680, TIME STEP    1, STRESS PERIOD    1
                     ------------------------------------------------------------------------------------------

                                                             IN                           OUT
                                                      ----------------             ----------------
                               CONSTANT CONCENTRATION:    0.000000                    0.000000    
                                        CONSTANT HEAD:   0.1345367E+10              -0.1345157E+10
                                                WELLS:    0.000000                    0.000000    
                                             RECHARGE:    0.000000                    0.000000    
                               1ST/0TH ORDER REACTION:    0.000000                    0.000000    
                                MASS STORAGE (SOLUTE):   0.1880879E+09              -0.1882983E+09
                            ---------------------------------------------------------------------------
                                              [TOTAL]:   0.1533457E+10 KG           -0.1533457E+10 KG  

                                                          NET (IN - OUT):   -228.8892    
                                                   DISCREPANCY (PERCENT):  -0.1492636E-04



 >>>>>>>>>>>>>>>>>>>>>>>>>>>>>>>>>>>>>>>>>>>>>>>>>>>>>>>FOR COMPONENT NO. 02<<<<<<<<<<<<<<<<<<<<<<<<<<<<<<<<<<<<<<<<<<<<<<<<<<<<<<<


                                            -------------------------------------------
                                                      TRANSPORT STEP NO.  680
                                            -------------------------------------------

 TOTAL ELAPSED TIME SINCE BEGINNING OF SIMULATION =   34000.00    D   
 .....................................................................

                     CUMMULATIVE MASS BUDGETS AT END OF TRANSPORT STEP  680, TIME STEP    1, STRESS PERIOD    1
                     ------------------------------------------------------------------------------------------

                                                             IN                           OUT
                                                      ----------------             ----------------
                               CONSTANT CONCENTRATION:    0.000000                    0.000000    
                                        CONSTANT HEAD:    0.000000                  -0.2506214E+12
                                                WELLS:    0.000000                    0.000000    
                                             RECHARGE:    0.000000                    0.000000    
                               1ST/0TH ORDER REACTION:   0.5627000E+12                0.000000    
                                MASS STORAGE (SOLUTE):   0.8917671E+11              -0.4012554E+12
                            ---------------------------------------------------------------------------
                                              [TOTAL]:   0.6518780E+12 KG           -0.6518780E+12 KG  

                                                          NET (IN - OUT):   -85863.78    
                                                   DISCREPANCY (PERCENT):  -0.1317176E-04
 
 SOLVING FOR HEAD 


     2 CALLS TO PCG ROUTINE FOR TIME STEP   1 IN STRESS PERIOD    1
     8 TOTAL ITERATIONS

 MAXIMUM HEAD CHANGE FOR EACH ITERATION (1 INDICATES THE FIRST INNER ITERATION):

    HEAD CHANGE    HEAD CHANGE    HEAD CHANGE    HEAD CHANGE    HEAD CHANGE 
   LAYER,ROW,COL  LAYER,ROW,COL  LAYER,ROW,COL  LAYER,ROW,COL  LAYER,ROW,COL
 ---------------------------------------------------------------------------
  1  0.1356E-01  0 -0.4155E-02  0 -0.2936E-02  0  0.9018E-02  0  0.1021E-01
   ( 15,  1, 86)  ( 17,  1, 89)  (  8,  1, 12)  ( 11,  1, 68)  ( 11,  1, 56)
  0 -0.1920E-02  0 -0.7536E-03  1  0.4630E-03
   ( 11,  1, 54)  ( 11,  1, 61)  ( 11,  1, 60)

 MAXIMUM RESIDUAL FOR EACH ITERATION (1 INDICATES THE FIRST INNER ITERATION):

    RESIDUAL       RESIDUAL       RESIDUAL       RESIDUAL       RESIDUAL    
   LAYER,ROW,COL  LAYER,ROW,COL  LAYER,ROW,COL  LAYER,ROW,COL  LAYER,ROW,COL
 ---------------------------------------------------------------------------
  1  0.1343E+06  0 -0.9542E+05  0 -0.9439E+05  0 -0.2108E+05  0   5236.    
   ( 21,  1, 89)  ( 19,  1, 89)  ( 19,  1, 89)  ( 19,  1, 89)  ( 17,  1, 88)
  0   2754.      0   2334.      1   2040.    
   ( 22,  1, 87)  ( 22,  1, 87)  ( 22,  1, 87)


 FLOW MODEL IS TRANSIENT
 FLOW MODEL CONTAINS CONSTANT-HEAD CELLS


 MAXIMUM STEPSIZE DURING WHICH ANY PARTICLE CANNOT MOVE MORE THAN ONE CELL
 =  12.85    (WHEN MIN. R.F.=1)  AT K=  17, I=   1, J=  90

 MAXIMUM STEPSIZE WHICH MEETS STABILITY CRITERION OF THE ADVECTION TERM
 (FOR PURE FINITE-DIFFERENCE OPTION, MIXELM=0) 
 =  8.033    (WHEN MIN. R.F.=1)  AT K=  16, I=   1, J=  90


 TOTAL NUMBER OF POINT SOURCES/SINKS PRESENT IN THE FLOW MODEL =    30

 MAXIMUM STEPSIZE WHICH MEETS STABILITY CRITERION OF THE SINK & SOURCE TERM
 =  12.20    (WHEN MIN. R.F.=1)  AT K=  17, I=   1, J=  91

 MAXIMUM STEPSIZE WHICH MEETS STABILITY CRITERION OF THE DISPERSION TERM
 =  4.024    (WHEN MIN. R.F.=1)  AT K=  17, I=   1, J=  90
     1 CALLS TO GCG PACKAGE FOR TRANSPORT TIME STEP 681 IN FLOW TIME STEP   1 STRESS PERIOD   1
     8 TOTAL ITERATIONS
     1 CALLS TO GCG PACKAGE FOR TRANSPORT TIME STEP 681 IN FLOW TIME STEP   1 STRESS PERIOD   1
     8 TOTAL ITERATIONS
 
 SOLVING FOR HEAD 


     2 CALLS TO PCG ROUTINE FOR TIME STEP   1 IN STRESS PERIOD    1
     9 TOTAL ITERATIONS

 MAXIMUM HEAD CHANGE FOR EACH ITERATION (1 INDICATES THE FIRST INNER ITERATION):

    HEAD CHANGE    HEAD CHANGE    HEAD CHANGE    HEAD CHANGE    HEAD CHANGE 
   LAYER,ROW,COL  LAYER,ROW,COL  LAYER,ROW,COL  LAYER,ROW,COL  LAYER,ROW,COL
 ---------------------------------------------------------------------------
  1 -0.1376E-01  0 -0.5102E-02  0  0.5103E-02  0 -0.1005E-01  0  0.8380E-02
   ( 15,  1, 86)  (  8,  1, 12)  (  8,  1, 12)  (  8,  1, 51)  (  9,  1, 51)
  0  0.2589E-02  0 -0.1199E-02  0  0.5691E-03  1 -0.3915E-03
   ( 11,  1, 59)  ( 11,  1, 58)  ( 11,  1, 57)  ( 11,  1, 55)

 MAXIMUM RESIDUAL FOR EACH ITERATION (1 INDICATES THE FIRST INNER ITERATION):

    RESIDUAL       RESIDUAL       RESIDUAL       RESIDUAL       RESIDUAL    
   LAYER,ROW,COL  LAYER,ROW,COL  LAYER,ROW,COL  LAYER,ROW,COL  LAYER,ROW,COL
 ---------------------------------------------------------------------------
  1 -0.1339E+06  0  0.9432E+05  0  0.9378E+05  0  0.6374E+05  0   6084.    
   ( 21,  1, 89)  ( 19,  1, 89)  ( 19,  1, 89)  ( 19,  1, 89)  ( 17,  1, 87)
  0  -2754.      0  -2569.      0  -739.3      1  -637.7    
   ( 22,  1, 87)  ( 22,  1, 87)  ( 22,  1, 87)  ( 22,  1, 87)


 FLOW MODEL IS TRANSIENT
 FLOW MODEL CONTAINS CONSTANT-HEAD CELLS


 MAXIMUM STEPSIZE DURING WHICH ANY PARTICLE CANNOT MOVE MORE THAN ONE CELL
 =  13.18    (WHEN MIN. R.F.=1)  AT K=  17, I=   1, J=  90

 MAXIMUM STEPSIZE WHICH MEETS STABILITY CRITERION OF THE ADVECTION TERM
 (FOR PURE FINITE-DIFFERENCE OPTION, MIXELM=0) 
 =  7.984    (WHEN MIN. R.F.=1)  AT K=  16, I=   1, J=  90


 TOTAL NUMBER OF POINT SOURCES/SINKS PRESENT IN THE FLOW MODEL =    30

 MAXIMUM STEPSIZE WHICH MEETS STABILITY CRITERION OF THE SINK & SOURCE TERM
 =  12.13    (WHEN MIN. R.F.=1)  AT K=  17, I=   1, J=  91

 MAXIMUM STEPSIZE WHICH MEETS STABILITY CRITERION OF THE DISPERSION TERM
 =  4.359    (WHEN MIN. R.F.=1)  AT K=  17, I=   1, J=  90
     1 CALLS TO GCG PACKAGE FOR TRANSPORT TIME STEP 682 IN FLOW TIME STEP   1 STRESS PERIOD   1
     7 TOTAL ITERATIONS
     1 CALLS TO GCG PACKAGE FOR TRANSPORT TIME STEP 682 IN FLOW TIME STEP   1 STRESS PERIOD   1
     8 TOTAL ITERATIONS
 
 SOLVING FOR HEAD 


     2 CALLS TO PCG ROUTINE FOR TIME STEP   1 IN STRESS PERIOD    1
     8 TOTAL ITERATIONS

 MAXIMUM HEAD CHANGE FOR EACH ITERATION (1 INDICATES THE FIRST INNER ITERATION):

    HEAD CHANGE    HEAD CHANGE    HEAD CHANGE    HEAD CHANGE    HEAD CHANGE 
   LAYER,ROW,COL  LAYER,ROW,COL  LAYER,ROW,COL  LAYER,ROW,COL  LAYER,ROW,COL
 ---------------------------------------------------------------------------
  1  0.1350E-01  0 -0.4055E-02  0 -0.2661E-02  0  0.1126E-01  0 -0.1146E-01
   ( 15,  1, 86)  ( 17,  1, 89)  (  8,  1, 12)  ( 11,  1, 54)  ( 11,  1, 54)
  0  0.1955E-02  0 -0.8004E-03  1  0.4798E-03
   ( 11,  1, 51)  ( 11,  1, 49)  ( 11,  1, 49)

 MAXIMUM RESIDUAL FOR EACH ITERATION (1 INDICATES THE FIRST INNER ITERATION):

    RESIDUAL       RESIDUAL       RESIDUAL       RESIDUAL       RESIDUAL    
   LAYER,ROW,COL  LAYER,ROW,COL  LAYER,ROW,COL  LAYER,ROW,COL  LAYER,ROW,COL
 ---------------------------------------------------------------------------
  1  0.1343E+06  0 -0.9498E+05  0 -0.9382E+05  0 -0.2774E+05  0  -5363.    
   ( 21,  1, 89)  ( 19,  1, 89)  ( 19,  1, 89)  ( 19,  1, 89)  ( 17,  1, 87)
  0   2777.      0   2390.      1   2030.    
   ( 22,  1, 87)  ( 22,  1, 87)  ( 22,  1, 87)


 FLOW MODEL IS TRANSIENT
 FLOW MODEL CONTAINS CONSTANT-HEAD CELLS


 MAXIMUM STEPSIZE DURING WHICH ANY PARTICLE CANNOT MOVE MORE THAN ONE CELL
 =  12.82    (WHEN MIN. R.F.=1)  AT K=  17, I=   1, J=  90

 MAXIMUM STEPSIZE WHICH MEETS STABILITY CRITERION OF THE ADVECTION TERM
 (FOR PURE FINITE-DIFFERENCE OPTION, MIXELM=0) 
 =  8.022    (WHEN MIN. R.F.=1)  AT K=  16, I=   1, J=  90


 TOTAL NUMBER OF POINT SOURCES/SINKS PRESENT IN THE FLOW MODEL =    30

 MAXIMUM STEPSIZE WHICH MEETS STABILITY CRITERION OF THE SINK & SOURCE TERM
 =  12.18    (WHEN MIN. R.F.=1)  AT K=  17, I=   1, J=  91

 MAXIMUM STEPSIZE WHICH MEETS STABILITY CRITERION OF THE DISPERSION TERM
 =  4.015    (WHEN MIN. R.F.=1)  AT K=  17, I=   1, J=  90
     1 CALLS TO GCG PACKAGE FOR TRANSPORT TIME STEP 683 IN FLOW TIME STEP   1 STRESS PERIOD   1
     8 TOTAL ITERATIONS
     1 CALLS TO GCG PACKAGE FOR TRANSPORT TIME STEP 683 IN FLOW TIME STEP   1 STRESS PERIOD   1
     8 TOTAL ITERATIONS
 
 SOLVING FOR HEAD 


     2 CALLS TO PCG ROUTINE FOR TIME STEP   1 IN STRESS PERIOD    1
     9 TOTAL ITERATIONS

 MAXIMUM HEAD CHANGE FOR EACH ITERATION (1 INDICATES THE FIRST INNER ITERATION):

    HEAD CHANGE    HEAD CHANGE    HEAD CHANGE    HEAD CHANGE    HEAD CHANGE 
   LAYER,ROW,COL  LAYER,ROW,COL  LAYER,ROW,COL  LAYER,ROW,COL  LAYER,ROW,COL
 ---------------------------------------------------------------------------
  1 -0.1368E-01  0 -0.5945E-02  0  0.4311E-02  0  0.9022E-02  0 -0.7264E-02
   ( 15,  1, 86)  (  4,  1, 32)  (  7,  1, 12)  (  9,  1, 52)  (  8,  1, 51)
  0  0.3795E-02  0  0.1108E-02  0  0.5408E-03  1 -0.6230E-03
   ( 11,  1, 63)  ( 11,  1, 70)  ( 11,  1, 70)  ( 11,  1, 70)

 MAXIMUM RESIDUAL FOR EACH ITERATION (1 INDICATES THE FIRST INNER ITERATION):

    RESIDUAL       RESIDUAL       RESIDUAL       RESIDUAL       RESIDUAL    
   LAYER,ROW,COL  LAYER,ROW,COL  LAYER,ROW,COL  LAYER,ROW,COL  LAYER,ROW,COL
 ---------------------------------------------------------------------------
  1 -0.1337E+06  0  0.9422E+05  0  0.9354E+05  0  0.6985E+05  0   6441.    
   ( 21,  1, 89)  ( 19,  1, 89)  ( 19,  1, 89)  ( 19,  1, 89)  ( 17,  1, 87)
  0  -2978.      0  -2541.      0  -792.2      1  -687.6    
   ( 17,  1, 88)  ( 22,  1, 87)  ( 22,  1, 87)  ( 22,  1, 87)


 FLOW MODEL IS TRANSIENT
 FLOW MODEL CONTAINS CONSTANT-HEAD CELLS


 MAXIMUM STEPSIZE DURING WHICH ANY PARTICLE CANNOT MOVE MORE THAN ONE CELL
 =  13.16    (WHEN MIN. R.F.=1)  AT K=  17, I=   1, J=  90

 MAXIMUM STEPSIZE WHICH MEETS STABILITY CRITERION OF THE ADVECTION TERM
 (FOR PURE FINITE-DIFFERENCE OPTION, MIXELM=0) 
 =  7.978    (WHEN MIN. R.F.=1)  AT K=  16, I=   1, J=  90


 TOTAL NUMBER OF POINT SOURCES/SINKS PRESENT IN THE FLOW MODEL =    30

 MAXIMUM STEPSIZE WHICH MEETS STABILITY CRITERION OF THE SINK & SOURCE TERM
 =  12.10    (WHEN MIN. R.F.=1)  AT K=  17, I=   1, J=  91

 MAXIMUM STEPSIZE WHICH MEETS STABILITY CRITERION OF THE DISPERSION TERM
 =  4.351    (WHEN MIN. R.F.=1)  AT K=  17, I=   1, J=  90
     1 CALLS TO GCG PACKAGE FOR TRANSPORT TIME STEP 684 IN FLOW TIME STEP   1 STRESS PERIOD   1
    10 TOTAL ITERATIONS
     1 CALLS TO GCG PACKAGE FOR TRANSPORT TIME STEP 684 IN FLOW TIME STEP   1 STRESS PERIOD   1
     8 TOTAL ITERATIONS
 
 SOLVING FOR HEAD 


     2 CALLS TO PCG ROUTINE FOR TIME STEP   1 IN STRESS PERIOD    1
     8 TOTAL ITERATIONS

 MAXIMUM HEAD CHANGE FOR EACH ITERATION (1 INDICATES THE FIRST INNER ITERATION):

    HEAD CHANGE    HEAD CHANGE    HEAD CHANGE    HEAD CHANGE    HEAD CHANGE 
   LAYER,ROW,COL  LAYER,ROW,COL  LAYER,ROW,COL  LAYER,ROW,COL  LAYER,ROW,COL
 ---------------------------------------------------------------------------
  1  0.1359E-01  0 -0.4077E-02  0 -0.2710E-02  0  0.5956E-02  0 -0.6465E-02
   ( 15,  1, 86)  ( 17,  1, 89)  (  8,  1, 12)  ( 11,  1, 58)  ( 11,  1, 58)
  0  0.1614E-02  0 -0.9600E-03  1 -0.6797E-03
   ( 11,  1, 57)  ( 11,  1, 65)  ( 11,  1, 70)

 MAXIMUM RESIDUAL FOR EACH ITERATION (1 INDICATES THE FIRST INNER ITERATION):

    RESIDUAL       RESIDUAL       RESIDUAL       RESIDUAL       RESIDUAL    
   LAYER,ROW,COL  LAYER,ROW,COL  LAYER,ROW,COL  LAYER,ROW,COL  LAYER,ROW,COL
 ---------------------------------------------------------------------------
  1  0.1335E+06  0 -0.9420E+05  0 -0.9310E+05  0 -0.1939E+05  0   4747.    
   ( 21,  1, 89)  ( 19,  1, 89)  ( 19,  1, 89)  ( 19,  1, 89)  ( 17,  1, 88)
  0   2770.      0   2218.      1   1909.    
   ( 22,  1, 87)  ( 22,  1, 87)  ( 22,  1, 87)


 FLOW MODEL IS TRANSIENT
 FLOW MODEL CONTAINS CONSTANT-HEAD CELLS


 MAXIMUM STEPSIZE DURING WHICH ANY PARTICLE CANNOT MOVE MORE THAN ONE CELL
 =  12.82    (WHEN MIN. R.F.=1)  AT K=  17, I=   1, J=  90

 MAXIMUM STEPSIZE WHICH MEETS STABILITY CRITERION OF THE ADVECTION TERM
 (FOR PURE FINITE-DIFFERENCE OPTION, MIXELM=0) 
 =  8.022    (WHEN MIN. R.F.=1)  AT K=  16, I=   1, J=  90


 TOTAL NUMBER OF POINT SOURCES/SINKS PRESENT IN THE FLOW MODEL =    30

 MAXIMUM STEPSIZE WHICH MEETS STABILITY CRITERION OF THE SINK & SOURCE TERM
 =  12.18    (WHEN MIN. R.F.=1)  AT K=  17, I=   1, J=  91

 MAXIMUM STEPSIZE WHICH MEETS STABILITY CRITERION OF THE DISPERSION TERM
 =  4.018    (WHEN MIN. R.F.=1)  AT K=  17, I=   1, J=  90
     1 CALLS TO GCG PACKAGE FOR TRANSPORT TIME STEP 685 IN FLOW TIME STEP   1 STRESS PERIOD   1
     8 TOTAL ITERATIONS
  MAXIMUM CONCENTRATION CHANGES FOR EACH ITERATION:
  MAX. CHANGE LAYER,ROW,COL MAX. CHANGE LAYER,ROW,COL MAX. CHANGE LAYER,ROW,COL MAX. CHANGE LAYER,ROW,COL MAX. CHANGE LAYER,ROW,COL
 ------------------------------------------------------------------------------------------------------------------------------------
   0.5225E-01 ( 20,  1, 87)  0.4256E-02 ( 19,  1, 89)  0.2097E-02 ( 17,  1, 86)  0.4745E-03 ( 20,  1, 89)  0.9277E-04 ( 16,  1, 89)
   0.2068E-04 ( 20,  1, 89)  0.2012E-04 ( 16,  1, 90)  0.6649E-06 ( 17,  1, 90)
     1 CALLS TO GCG PACKAGE FOR TRANSPORT TIME STEP 685 IN FLOW TIME STEP   1 STRESS PERIOD   1
     8 TOTAL ITERATIONS
  MAXIMUM CONCENTRATION CHANGES FOR EACH ITERATION:
  MAX. CHANGE LAYER,ROW,COL MAX. CHANGE LAYER,ROW,COL MAX. CHANGE LAYER,ROW,COL MAX. CHANGE LAYER,ROW,COL MAX. CHANGE LAYER,ROW,COL
 ------------------------------------------------------------------------------------------------------------------------------------
   0.5825E-01 ( 20,  1, 87)  0.4816E-02 ( 19,  1, 89)  0.2086E-02 ( 18,  1, 86)  0.4280E-03 ( 20,  1, 89)  0.1070E-03 ( 16,  1, 89)
   0.1780E-04 ( 23,  1, 87)  0.1793E-04 ( 16,  1, 90)  0.8234E-06 ( 17,  1, 90)
 
 SOLVING FOR HEAD 


     2 CALLS TO PCG ROUTINE FOR TIME STEP   1 IN STRESS PERIOD    1
    10 TOTAL ITERATIONS

 MAXIMUM HEAD CHANGE FOR EACH ITERATION (1 INDICATES THE FIRST INNER ITERATION):

    HEAD CHANGE    HEAD CHANGE    HEAD CHANGE    HEAD CHANGE    HEAD CHANGE 
   LAYER,ROW,COL  LAYER,ROW,COL  LAYER,ROW,COL  LAYER,ROW,COL  LAYER,ROW,COL
 ---------------------------------------------------------------------------
  1 -0.1361E-01  0 -0.4658E-02  0  0.3804E-02  0  0.1255E-01  0 -0.1042E-01
   ( 15,  1, 86)  ( 11,  1, 70)  (  8,  1, 12)  ( 11,  1, 69)  ( 11,  1, 69)
  0  0.4110E-02  0  0.1452E-02  0  0.1093E-02  0 -0.6968E-03  1 -0.2361E-03
   ( 11,  1, 64)  ( 11,  1, 70)  ( 11,  1, 60)  ( 11,  1, 59)  ( 11,  1, 64)

 MAXIMUM RESIDUAL FOR EACH ITERATION (1 INDICATES THE FIRST INNER ITERATION):

    RESIDUAL       RESIDUAL       RESIDUAL       RESIDUAL       RESIDUAL    
   LAYER,ROW,COL  LAYER,ROW,COL  LAYER,ROW,COL  LAYER,ROW,COL  LAYER,ROW,COL
 ---------------------------------------------------------------------------
  1 -0.1332E+06  0  0.9412E+05  0  0.9334E+05  0  0.5380E+05  0   6235.    
   ( 21,  1, 89)  ( 19,  1, 89)  ( 19,  1, 89)  ( 19,  1, 89)  ( 17,  1, 87)
  0  -2910.      0  -2543.      0  -1444.      0  -383.5      1   325.4    
   ( 17,  1, 88)  ( 22,  1, 87)  ( 22,  1, 87)  ( 22,  1, 87)  ( 18,  1, 90)


 FLOW MODEL IS TRANSIENT
 FLOW MODEL CONTAINS CONSTANT-HEAD CELLS


 MAXIMUM STEPSIZE DURING WHICH ANY PARTICLE CANNOT MOVE MORE THAN ONE CELL
 =  13.17    (WHEN MIN. R.F.=1)  AT K=  17, I=   1, J=  90

 MAXIMUM STEPSIZE WHICH MEETS STABILITY CRITERION OF THE ADVECTION TERM
 (FOR PURE FINITE-DIFFERENCE OPTION, MIXELM=0) 
 =  7.980    (WHEN MIN. R.F.=1)  AT K=  16, I=   1, J=  90


 TOTAL NUMBER OF POINT SOURCES/SINKS PRESENT IN THE FLOW MODEL =    30

 MAXIMUM STEPSIZE WHICH MEETS STABILITY CRITERION OF THE SINK & SOURCE TERM
 =  12.12    (WHEN MIN. R.F.=1)  AT K=  17, I=   1, J=  91

 MAXIMUM STEPSIZE WHICH MEETS STABILITY CRITERION OF THE DISPERSION TERM
 =  4.353    (WHEN MIN. R.F.=1)  AT K=  17, I=   1, J=  90
     1 CALLS TO GCG PACKAGE FOR TRANSPORT TIME STEP 686 IN FLOW TIME STEP   1 STRESS PERIOD   1
    10 TOTAL ITERATIONS
     1 CALLS TO GCG PACKAGE FOR TRANSPORT TIME STEP 686 IN FLOW TIME STEP   1 STRESS PERIOD   1
     8 TOTAL ITERATIONS
 
 SOLVING FOR HEAD 


     2 CALLS TO PCG ROUTINE FOR TIME STEP   1 IN STRESS PERIOD    1
     8 TOTAL ITERATIONS

 MAXIMUM HEAD CHANGE FOR EACH ITERATION (1 INDICATES THE FIRST INNER ITERATION):

    HEAD CHANGE    HEAD CHANGE    HEAD CHANGE    HEAD CHANGE    HEAD CHANGE 
   LAYER,ROW,COL  LAYER,ROW,COL  LAYER,ROW,COL  LAYER,ROW,COL  LAYER,ROW,COL
 ---------------------------------------------------------------------------
  1  0.1353E-01  0 -0.3941E-02  0 -0.2458E-02  0 -0.6628E-02  0  0.9013E-02
   ( 15,  1, 86)  ( 17,  1, 89)  (  8,  1, 12)  ( 11,  1, 58)  ( 11,  1, 58)
  0 -0.2484E-02  0 -0.6952E-03  1 -0.5489E-03
   ( 11,  1, 57)  ( 11,  1, 58)  ( 11,  1, 64)

 MAXIMUM RESIDUAL FOR EACH ITERATION (1 INDICATES THE FIRST INNER ITERATION):

    RESIDUAL       RESIDUAL       RESIDUAL       RESIDUAL       RESIDUAL    
   LAYER,ROW,COL  LAYER,ROW,COL  LAYER,ROW,COL  LAYER,ROW,COL  LAYER,ROW,COL
 ---------------------------------------------------------------------------
  1  0.1330E+06  0 -0.9342E+05  0 -0.9214E+05  0 -0.1397E+05  0   4284.    
   ( 21,  1, 89)  ( 19,  1, 89)  ( 19,  1, 89)  ( 19,  1, 89)  ( 17,  1, 88)
  0   2803.      0   2305.      1   2004.    
   ( 22,  1, 87)  ( 22,  1, 87)  ( 22,  1, 87)


 FLOW MODEL IS TRANSIENT
 FLOW MODEL CONTAINS CONSTANT-HEAD CELLS


 MAXIMUM STEPSIZE DURING WHICH ANY PARTICLE CANNOT MOVE MORE THAN ONE CELL
 =  12.81    (WHEN MIN. R.F.=1)  AT K=  17, I=   1, J=  90

 MAXIMUM STEPSIZE WHICH MEETS STABILITY CRITERION OF THE ADVECTION TERM
 (FOR PURE FINITE-DIFFERENCE OPTION, MIXELM=0) 
 =  8.016    (WHEN MIN. R.F.=1)  AT K=  16, I=   1, J=  90


 TOTAL NUMBER OF POINT SOURCES/SINKS PRESENT IN THE FLOW MODEL =    30

 MAXIMUM STEPSIZE WHICH MEETS STABILITY CRITERION OF THE SINK & SOURCE TERM
 =  12.17    (WHEN MIN. R.F.=1)  AT K=  17, I=   1, J=  91

 MAXIMUM STEPSIZE WHICH MEETS STABILITY CRITERION OF THE DISPERSION TERM
 =  4.015    (WHEN MIN. R.F.=1)  AT K=  17, I=   1, J=  90
     1 CALLS TO GCG PACKAGE FOR TRANSPORT TIME STEP 687 IN FLOW TIME STEP   1 STRESS PERIOD   1
     8 TOTAL ITERATIONS
     1 CALLS TO GCG PACKAGE FOR TRANSPORT TIME STEP 687 IN FLOW TIME STEP   1 STRESS PERIOD   1
     8 TOTAL ITERATIONS
 
 SOLVING FOR HEAD 


     2 CALLS TO PCG ROUTINE FOR TIME STEP   1 IN STRESS PERIOD    1
     9 TOTAL ITERATIONS

 MAXIMUM HEAD CHANGE FOR EACH ITERATION (1 INDICATES THE FIRST INNER ITERATION):

    HEAD CHANGE    HEAD CHANGE    HEAD CHANGE    HEAD CHANGE    HEAD CHANGE 
   LAYER,ROW,COL  LAYER,ROW,COL  LAYER,ROW,COL  LAYER,ROW,COL  LAYER,ROW,COL
 ---------------------------------------------------------------------------
  1 -0.1356E-01  0 -0.5118E-02  0  0.3460E-02  0  0.8788E-02  0 -0.7602E-02
   ( 15,  1, 86)  (  6,  1, 38)  (  7,  1, 12)  (  9,  1, 42)  (  8,  1, 46)
  0  0.2750E-02  0 -0.1169E-02  0  0.7725E-03  1 -0.6511E-03
   ( 11,  1, 58)  ( 11,  1, 58)  ( 11,  1, 63)  ( 11,  1, 63)

 MAXIMUM RESIDUAL FOR EACH ITERATION (1 INDICATES THE FIRST INNER ITERATION):

    RESIDUAL       RESIDUAL       RESIDUAL       RESIDUAL       RESIDUAL    
   LAYER,ROW,COL  LAYER,ROW,COL  LAYER,ROW,COL  LAYER,ROW,COL  LAYER,ROW,COL
 ---------------------------------------------------------------------------
  1 -0.1330E+06  0  0.9389E+05  0  0.9302E+05  0  0.6370E+05  0   6209.    
   ( 21,  1, 89)  ( 19,  1, 89)  ( 19,  1, 89)  ( 19,  1, 89)  ( 17,  1, 87)
  0  -2716.      0  -2533.      0  -1107.      1  -974.1    
   ( 22,  1, 87)  ( 22,  1, 87)  ( 22,  1, 87)  ( 22,  1, 87)


 FLOW MODEL IS TRANSIENT
 FLOW MODEL CONTAINS CONSTANT-HEAD CELLS


 MAXIMUM STEPSIZE DURING WHICH ANY PARTICLE CANNOT MOVE MORE THAN ONE CELL
 =  13.15    (WHEN MIN. R.F.=1)  AT K=  17, I=   1, J=  90

 MAXIMUM STEPSIZE WHICH MEETS STABILITY CRITERION OF THE ADVECTION TERM
 (FOR PURE FINITE-DIFFERENCE OPTION, MIXELM=0) 
 =  7.974    (WHEN MIN. R.F.=1)  AT K=  16, I=   1, J=  90


 TOTAL NUMBER OF POINT SOURCES/SINKS PRESENT IN THE FLOW MODEL =    30

 MAXIMUM STEPSIZE WHICH MEETS STABILITY CRITERION OF THE SINK & SOURCE TERM
 =  12.10    (WHEN MIN. R.F.=1)  AT K=  17, I=   1, J=  91

 MAXIMUM STEPSIZE WHICH MEETS STABILITY CRITERION OF THE DISPERSION TERM
 =  4.342    (WHEN MIN. R.F.=1)  AT K=  17, I=   1, J=  90
     1 CALLS TO GCG PACKAGE FOR TRANSPORT TIME STEP 688 IN FLOW TIME STEP   1 STRESS PERIOD   1
     8 TOTAL ITERATIONS
     1 CALLS TO GCG PACKAGE FOR TRANSPORT TIME STEP 688 IN FLOW TIME STEP   1 STRESS PERIOD   1
     8 TOTAL ITERATIONS
 
 SOLVING FOR HEAD 


     2 CALLS TO PCG ROUTINE FOR TIME STEP   1 IN STRESS PERIOD    1
     8 TOTAL ITERATIONS

 MAXIMUM HEAD CHANGE FOR EACH ITERATION (1 INDICATES THE FIRST INNER ITERATION):

    HEAD CHANGE    HEAD CHANGE    HEAD CHANGE    HEAD CHANGE    HEAD CHANGE 
   LAYER,ROW,COL  LAYER,ROW,COL  LAYER,ROW,COL  LAYER,ROW,COL  LAYER,ROW,COL
 ---------------------------------------------------------------------------
  1  0.1371E-01  0 -0.4103E-02  0 -0.3542E-02  0 -0.8065E-02  0  0.9459E-02
   ( 15,  1, 86)  ( 17,  1, 89)  (  8,  1, 12)  ( 11,  1, 49)  ( 11,  1, 49)
  0 -0.1854E-02  0 -0.9037E-03  1 -0.7358E-03
   ( 11,  1, 49)  ( 11,  1, 70)  ( 11,  1, 53)

 MAXIMUM RESIDUAL FOR EACH ITERATION (1 INDICATES THE FIRST INNER ITERATION):

    RESIDUAL       RESIDUAL       RESIDUAL       RESIDUAL       RESIDUAL    
   LAYER,ROW,COL  LAYER,ROW,COL  LAYER,ROW,COL  LAYER,ROW,COL  LAYER,ROW,COL
 ---------------------------------------------------------------------------
  1  0.1328E+06  0 -0.9379E+05  0 -0.9295E+05  0 -0.1887E+05  0   4740.    
   ( 21,  1, 89)  ( 19,  1, 89)  ( 19,  1, 89)  ( 19,  1, 89)  ( 17,  1, 88)
  0   2780.      0   2210.      1   1907.    
   ( 22,  1, 87)  ( 22,  1, 87)  ( 22,  1, 87)


 FLOW MODEL IS TRANSIENT
 FLOW MODEL CONTAINS CONSTANT-HEAD CELLS


 MAXIMUM STEPSIZE DURING WHICH ANY PARTICLE CANNOT MOVE MORE THAN ONE CELL
 =  12.84    (WHEN MIN. R.F.=1)  AT K=  17, I=   1, J=  90

 MAXIMUM STEPSIZE WHICH MEETS STABILITY CRITERION OF THE ADVECTION TERM
 (FOR PURE FINITE-DIFFERENCE OPTION, MIXELM=0) 
 =  8.025    (WHEN MIN. R.F.=1)  AT K=  16, I=   1, J=  90


 TOTAL NUMBER OF POINT SOURCES/SINKS PRESENT IN THE FLOW MODEL =    30

 MAXIMUM STEPSIZE WHICH MEETS STABILITY CRITERION OF THE SINK & SOURCE TERM
 =  12.19    (WHEN MIN. R.F.=1)  AT K=  17, I=   1, J=  91

 MAXIMUM STEPSIZE WHICH MEETS STABILITY CRITERION OF THE DISPERSION TERM
 =  4.023    (WHEN MIN. R.F.=1)  AT K=  17, I=   1, J=  90
     1 CALLS TO GCG PACKAGE FOR TRANSPORT TIME STEP 689 IN FLOW TIME STEP   1 STRESS PERIOD   1
     8 TOTAL ITERATIONS
     1 CALLS TO GCG PACKAGE FOR TRANSPORT TIME STEP 689 IN FLOW TIME STEP   1 STRESS PERIOD   1
     8 TOTAL ITERATIONS
 
 SOLVING FOR HEAD 


     2 CALLS TO PCG ROUTINE FOR TIME STEP   1 IN STRESS PERIOD    1
     9 TOTAL ITERATIONS

 MAXIMUM HEAD CHANGE FOR EACH ITERATION (1 INDICATES THE FIRST INNER ITERATION):

    HEAD CHANGE    HEAD CHANGE    HEAD CHANGE    HEAD CHANGE    HEAD CHANGE 
   LAYER,ROW,COL  LAYER,ROW,COL  LAYER,ROW,COL  LAYER,ROW,COL  LAYER,ROW,COL
 ---------------------------------------------------------------------------
  1 -0.1361E-01  0 -0.4218E-02  0  0.3673E-02  0  0.1109E-01  0 -0.9024E-02
   ( 15,  1, 86)  ( 11,  1, 53)  (  8,  1, 12)  ( 11,  1, 53)  ( 10,  1, 46)
  0 -0.3012E-02  0  0.1696E-02  0  0.9420E-03  1 -0.7515E-03
   ( 11,  1, 53)  ( 11,  1, 53)  ( 11,  1, 65)  ( 11,  1, 65)

 MAXIMUM RESIDUAL FOR EACH ITERATION (1 INDICATES THE FIRST INNER ITERATION):

    RESIDUAL       RESIDUAL       RESIDUAL       RESIDUAL       RESIDUAL    
   LAYER,ROW,COL  LAYER,ROW,COL  LAYER,ROW,COL  LAYER,ROW,COL  LAYER,ROW,COL
 ---------------------------------------------------------------------------
  1 -0.1328E+06  0  0.9379E+05  0  0.9298E+05  0  0.4943E+05  0   6043.    
   ( 21,  1, 89)  ( 19,  1, 89)  ( 19,  1, 89)  ( 19,  1, 89)  ( 17,  1, 87)
  0  -2825.      0  -2566.      0  -1644.      1  -1452.    
   ( 17,  1, 88)  ( 22,  1, 87)  ( 22,  1, 87)  ( 22,  1, 87)


 FLOW MODEL IS TRANSIENT
 FLOW MODEL CONTAINS CONSTANT-HEAD CELLS


 MAXIMUM STEPSIZE DURING WHICH ANY PARTICLE CANNOT MOVE MORE THAN ONE CELL
 =  13.18    (WHEN MIN. R.F.=1)  AT K=  17, I=   1, J=  90

 MAXIMUM STEPSIZE WHICH MEETS STABILITY CRITERION OF THE ADVECTION TERM
 (FOR PURE FINITE-DIFFERENCE OPTION, MIXELM=0) 
 =  7.986    (WHEN MIN. R.F.=1)  AT K=  16, I=   1, J=  90


 TOTAL NUMBER OF POINT SOURCES/SINKS PRESENT IN THE FLOW MODEL =    30

 MAXIMUM STEPSIZE WHICH MEETS STABILITY CRITERION OF THE SINK & SOURCE TERM
 =  12.13    (WHEN MIN. R.F.=1)  AT K=  17, I=   1, J=  91

 MAXIMUM STEPSIZE WHICH MEETS STABILITY CRITERION OF THE DISPERSION TERM
 =  4.358    (WHEN MIN. R.F.=1)  AT K=  17, I=   1, J=  90
     1 CALLS TO GCG PACKAGE FOR TRANSPORT TIME STEP 690 IN FLOW TIME STEP   1 STRESS PERIOD   1
     8 TOTAL ITERATIONS
  MAXIMUM CONCENTRATION CHANGES FOR EACH ITERATION:
  MAX. CHANGE LAYER,ROW,COL MAX. CHANGE LAYER,ROW,COL MAX. CHANGE LAYER,ROW,COL MAX. CHANGE LAYER,ROW,COL MAX. CHANGE LAYER,ROW,COL
 ------------------------------------------------------------------------------------------------------------------------------------
   0.4876E-01 ( 20,  1, 87)  0.3315E-02 ( 19,  1, 87)  0.2168E-02 ( 18,  1, 87)  0.2137E-03 ( 16,  1, 88)  0.1456E-03 ( 16,  1, 89)
   0.2776E-04 ( 16,  1, 90)  0.3236E-05 ( 21,  1, 78)  0.5207E-06 ( 16,  1, 89)
     1 CALLS TO GCG PACKAGE FOR TRANSPORT TIME STEP 690 IN FLOW TIME STEP   1 STRESS PERIOD   1
     8 TOTAL ITERATIONS
  MAXIMUM CONCENTRATION CHANGES FOR EACH ITERATION:
  MAX. CHANGE LAYER,ROW,COL MAX. CHANGE LAYER,ROW,COL MAX. CHANGE LAYER,ROW,COL MAX. CHANGE LAYER,ROW,COL MAX. CHANGE LAYER,ROW,COL
 ------------------------------------------------------------------------------------------------------------------------------------
   0.5420E-01 ( 20,  1, 87)  0.3661E-02 ( 19,  1, 87)  0.2307E-02 ( 18,  1, 87)  0.2212E-03 ( 16,  1, 88)  0.1345E-03 ( 17,  1, 89)
   0.3476E-04 ( 16,  1, 90)  0.4884E-05 ( 17,  1, 90)  0.5952E-06 ( 16,  1, 89)



 >>>>>>>>>>>>>>>>>>>>>>>>>>>>>>>>>>>>>>>>>>>>>>>>>>>>>>>FOR COMPONENT NO. 01<<<<<<<<<<<<<<<<<<<<<<<<<<<<<<<<<<<<<<<<<<<<<<<<<<<<<<<


                                            -------------------------------------------
                                                      TRANSPORT STEP NO.  690
                                            -------------------------------------------

 TOTAL ELAPSED TIME SINCE BEGINNING OF SIMULATION =   34500.00    D   
 .....................................................................

                     CUMMULATIVE MASS BUDGETS AT END OF TRANSPORT STEP  690, TIME STEP    1, STRESS PERIOD    1
                     ------------------------------------------------------------------------------------------

                                                             IN                           OUT
                                                      ----------------             ----------------
                               CONSTANT CONCENTRATION:    0.000000                    0.000000    
                                        CONSTANT HEAD:   0.1365187E+10              -0.1364978E+10
                                                WELLS:    0.000000                    0.000000    
                                             RECHARGE:    0.000000                    0.000000    
                               1ST/0TH ORDER REACTION:    0.000000                    0.000000    
                                MASS STORAGE (SOLUTE):   0.1908558E+09              -0.1910656E+09
                            ---------------------------------------------------------------------------
                                              [TOTAL]:   0.1556045E+10 KG           -0.1556045E+10 KG  

                                                          NET (IN - OUT):   -246.1937    
                                                   DISCREPANCY (PERCENT):  -0.1582176E-04



 >>>>>>>>>>>>>>>>>>>>>>>>>>>>>>>>>>>>>>>>>>>>>>>>>>>>>>>FOR COMPONENT NO. 02<<<<<<<<<<<<<<<<<<<<<<<<<<<<<<<<<<<<<<<<<<<<<<<<<<<<<<<


                                            -------------------------------------------
                                                      TRANSPORT STEP NO.  690
                                            -------------------------------------------

 TOTAL ELAPSED TIME SINCE BEGINNING OF SIMULATION =   34500.00    D   
 .....................................................................

                     CUMMULATIVE MASS BUDGETS AT END OF TRANSPORT STEP  690, TIME STEP    1, STRESS PERIOD    1
                     ------------------------------------------------------------------------------------------

                                                             IN                           OUT
                                                      ----------------             ----------------
                               CONSTANT CONCENTRATION:    0.000000                    0.000000    
                                        CONSTANT HEAD:    0.000000                  -0.2567470E+12
                                                WELLS:    0.000000                    0.000000    
                                             RECHARGE:    0.000000                    0.000000    
                               1ST/0TH ORDER REACTION:   0.5709750E+12                0.000000    
                                MASS STORAGE (SOLUTE):   0.9185805E+11              -0.4060861E+12
                            ---------------------------------------------------------------------------
                                              [TOTAL]:   0.6628343E+12 KG           -0.6628344E+12 KG  

                                                          NET (IN - OUT):   -88111.64    
                                                   DISCREPANCY (PERCENT):  -0.1329316E-04
 
 SOLVING FOR HEAD 


     2 CALLS TO PCG ROUTINE FOR TIME STEP   1 IN STRESS PERIOD    1
     8 TOTAL ITERATIONS

 MAXIMUM HEAD CHANGE FOR EACH ITERATION (1 INDICATES THE FIRST INNER ITERATION):

    HEAD CHANGE    HEAD CHANGE    HEAD CHANGE    HEAD CHANGE    HEAD CHANGE 
   LAYER,ROW,COL  LAYER,ROW,COL  LAYER,ROW,COL  LAYER,ROW,COL  LAYER,ROW,COL
 ---------------------------------------------------------------------------
  1  0.1376E-01  0 -0.4198E-02  0 -0.4106E-02  0  0.1032E-01  0  0.1072E-01
   ( 15,  1, 86)  ( 17,  1, 89)  (  8,  1, 12)  ( 11,  1, 66)  ( 11,  1, 51)
  0 -0.1631E-02  0 -0.7133E-03  1  0.4653E-03
   ( 11,  1, 53)  ( 11,  1, 70)  (  6,  1, 43)

 MAXIMUM RESIDUAL FOR EACH ITERATION (1 INDICATES THE FIRST INNER ITERATION):

    RESIDUAL       RESIDUAL       RESIDUAL       RESIDUAL       RESIDUAL    
   LAYER,ROW,COL  LAYER,ROW,COL  LAYER,ROW,COL  LAYER,ROW,COL  LAYER,ROW,COL
 ---------------------------------------------------------------------------
  1  0.1344E+06  0 -0.9537E+05  0 -0.9463E+05  0 -0.2876E+05  0   5411.    
   ( 21,  1, 89)  ( 19,  1, 89)  ( 19,  1, 89)  ( 19,  1, 89)  ( 17,  1, 88)
  0   2770.      0   2504.      1   1991.    
   ( 22,  1, 87)  ( 22,  1, 87)  ( 22,  1, 87)


 FLOW MODEL IS TRANSIENT
 FLOW MODEL CONTAINS CONSTANT-HEAD CELLS


 MAXIMUM STEPSIZE DURING WHICH ANY PARTICLE CANNOT MOVE MORE THAN ONE CELL
 =  12.85    (WHEN MIN. R.F.=1)  AT K=  17, I=   1, J=  90

 MAXIMUM STEPSIZE WHICH MEETS STABILITY CRITERION OF THE ADVECTION TERM
 (FOR PURE FINITE-DIFFERENCE OPTION, MIXELM=0) 
 =  8.034    (WHEN MIN. R.F.=1)  AT K=  16, I=   1, J=  90


 TOTAL NUMBER OF POINT SOURCES/SINKS PRESENT IN THE FLOW MODEL =    30

 MAXIMUM STEPSIZE WHICH MEETS STABILITY CRITERION OF THE SINK & SOURCE TERM
 =  12.22    (WHEN MIN. R.F.=1)  AT K=  17, I=   1, J=  91

 MAXIMUM STEPSIZE WHICH MEETS STABILITY CRITERION OF THE DISPERSION TERM
 =  4.027    (WHEN MIN. R.F.=1)  AT K=  17, I=   1, J=  90
     1 CALLS TO GCG PACKAGE FOR TRANSPORT TIME STEP 691 IN FLOW TIME STEP   1 STRESS PERIOD   1
     8 TOTAL ITERATIONS
     1 CALLS TO GCG PACKAGE FOR TRANSPORT TIME STEP 691 IN FLOW TIME STEP   1 STRESS PERIOD   1
     8 TOTAL ITERATIONS
 
 SOLVING FOR HEAD 


     2 CALLS TO PCG ROUTINE FOR TIME STEP   1 IN STRESS PERIOD    1
     9 TOTAL ITERATIONS

 MAXIMUM HEAD CHANGE FOR EACH ITERATION (1 INDICATES THE FIRST INNER ITERATION):

    HEAD CHANGE    HEAD CHANGE    HEAD CHANGE    HEAD CHANGE    HEAD CHANGE 
   LAYER,ROW,COL  LAYER,ROW,COL  LAYER,ROW,COL  LAYER,ROW,COL  LAYER,ROW,COL
 ---------------------------------------------------------------------------
  1 -0.1368E-01  0 -0.5959E-02  0  0.5124E-02  0 -0.1003E-01  0  0.6785E-02
   ( 15,  1, 86)  ( 11,  1, 37)  (  8,  1, 12)  (  7,  1, 44)  (  8,  1, 46)
  0  0.3189E-02  0 -0.1331E-02  0  0.8487E-03  1 -0.7219E-03
   ( 11,  1, 49)  ( 11,  1, 51)  ( 11,  1, 64)  ( 11,  1, 64)

 MAXIMUM RESIDUAL FOR EACH ITERATION (1 INDICATES THE FIRST INNER ITERATION):

    RESIDUAL       RESIDUAL       RESIDUAL       RESIDUAL       RESIDUAL    
   LAYER,ROW,COL  LAYER,ROW,COL  LAYER,ROW,COL  LAYER,ROW,COL  LAYER,ROW,COL
 ---------------------------------------------------------------------------
  1 -0.1347E+06  0  0.9497E+05  0  0.9442E+05  0  0.7648E+05  0   6314.    
   ( 21,  1, 89)  ( 19,  1, 89)  ( 19,  1, 89)  ( 19,  1, 89)  ( 17,  1, 87)
  0  -3023.      0  -2588.      0  -1114.      1  -976.7    
   ( 17,  1, 88)  ( 22,  1, 87)  ( 22,  1, 87)  ( 22,  1, 87)


 FLOW MODEL IS TRANSIENT
 FLOW MODEL CONTAINS CONSTANT-HEAD CELLS


 MAXIMUM STEPSIZE DURING WHICH ANY PARTICLE CANNOT MOVE MORE THAN ONE CELL
 =  13.19    (WHEN MIN. R.F.=1)  AT K=  17, I=   1, J=  90

 MAXIMUM STEPSIZE WHICH MEETS STABILITY CRITERION OF THE ADVECTION TERM
 (FOR PURE FINITE-DIFFERENCE OPTION, MIXELM=0) 
 =  7.987    (WHEN MIN. R.F.=1)  AT K=  16, I=   1, J=  90


 TOTAL NUMBER OF POINT SOURCES/SINKS PRESENT IN THE FLOW MODEL =    30

 MAXIMUM STEPSIZE WHICH MEETS STABILITY CRITERION OF THE SINK & SOURCE TERM
 =  12.14    (WHEN MIN. R.F.=1)  AT K=  17, I=   1, J=  91

 MAXIMUM STEPSIZE WHICH MEETS STABILITY CRITERION OF THE DISPERSION TERM
 =  4.366    (WHEN MIN. R.F.=1)  AT K=  17, I=   1, J=  90
     1 CALLS TO GCG PACKAGE FOR TRANSPORT TIME STEP 692 IN FLOW TIME STEP   1 STRESS PERIOD   1
     7 TOTAL ITERATIONS
     1 CALLS TO GCG PACKAGE FOR TRANSPORT TIME STEP 692 IN FLOW TIME STEP   1 STRESS PERIOD   1
     8 TOTAL ITERATIONS
 
 SOLVING FOR HEAD 


     2 CALLS TO PCG ROUTINE FOR TIME STEP   1 IN STRESS PERIOD    1
     8 TOTAL ITERATIONS

 MAXIMUM HEAD CHANGE FOR EACH ITERATION (1 INDICATES THE FIRST INNER ITERATION):

    HEAD CHANGE    HEAD CHANGE    HEAD CHANGE    HEAD CHANGE    HEAD CHANGE 
   LAYER,ROW,COL  LAYER,ROW,COL  LAYER,ROW,COL  LAYER,ROW,COL  LAYER,ROW,COL
 ---------------------------------------------------------------------------
  1  0.1355E-01  0 -0.4128E-02  0 -0.3331E-02  0  0.8593E-02  0  0.9972E-02
   ( 15,  1, 86)  ( 17,  1, 89)  (  8,  1, 12)  ( 11,  1, 53)  ( 11,  1, 69)
  0 -0.2515E-02  0  0.9772E-03  1 -0.7767E-03
   ( 11,  1, 68)  ( 11,  1, 64)  ( 11,  1, 63)

 MAXIMUM RESIDUAL FOR EACH ITERATION (1 INDICATES THE FIRST INNER ITERATION):

    RESIDUAL       RESIDUAL       RESIDUAL       RESIDUAL       RESIDUAL    
   LAYER,ROW,COL  LAYER,ROW,COL  LAYER,ROW,COL  LAYER,ROW,COL  LAYER,ROW,COL
 ---------------------------------------------------------------------------
  1  0.1356E+06  0 -0.9623E+05  0 -0.9531E+05  0 -0.1918E+05  0   4965.    
   ( 21,  1, 89)  ( 19,  1, 89)  ( 19,  1, 89)  ( 19,  1, 89)  ( 17,  1, 88)
  0   2744.      0   2467.      1   1930.    
   ( 22,  1, 87)  ( 22,  1, 87)  ( 22,  1, 87)


 FLOW MODEL IS TRANSIENT
 FLOW MODEL CONTAINS CONSTANT-HEAD CELLS


 MAXIMUM STEPSIZE DURING WHICH ANY PARTICLE CANNOT MOVE MORE THAN ONE CELL
 =  12.83    (WHEN MIN. R.F.=1)  AT K=  17, I=   1, J=  90

 MAXIMUM STEPSIZE WHICH MEETS STABILITY CRITERION OF THE ADVECTION TERM
 (FOR PURE FINITE-DIFFERENCE OPTION, MIXELM=0) 
 =  8.028    (WHEN MIN. R.F.=1)  AT K=  16, I=   1, J=  90


 TOTAL NUMBER OF POINT SOURCES/SINKS PRESENT IN THE FLOW MODEL =    30

 MAXIMUM STEPSIZE WHICH MEETS STABILITY CRITERION OF THE SINK & SOURCE TERM
 =  12.20    (WHEN MIN. R.F.=1)  AT K=  17, I=   1, J=  91

 MAXIMUM STEPSIZE WHICH MEETS STABILITY CRITERION OF THE DISPERSION TERM
 =  4.019    (WHEN MIN. R.F.=1)  AT K=  17, I=   1, J=  90
     1 CALLS TO GCG PACKAGE FOR TRANSPORT TIME STEP 693 IN FLOW TIME STEP   1 STRESS PERIOD   1
     8 TOTAL ITERATIONS
     1 CALLS TO GCG PACKAGE FOR TRANSPORT TIME STEP 693 IN FLOW TIME STEP   1 STRESS PERIOD   1
     8 TOTAL ITERATIONS
 
 SOLVING FOR HEAD 


     2 CALLS TO PCG ROUTINE FOR TIME STEP   1 IN STRESS PERIOD    1
     9 TOTAL ITERATIONS

 MAXIMUM HEAD CHANGE FOR EACH ITERATION (1 INDICATES THE FIRST INNER ITERATION):

    HEAD CHANGE    HEAD CHANGE    HEAD CHANGE    HEAD CHANGE    HEAD CHANGE 
   LAYER,ROW,COL  LAYER,ROW,COL  LAYER,ROW,COL  LAYER,ROW,COL  LAYER,ROW,COL
 ---------------------------------------------------------------------------
  1 -0.1367E-01  0 -0.7801E-02  0  0.4513E-02  0  0.9299E-02  0 -0.6429E-02
   ( 15,  1, 86)  ( 11,  1, 63)  (  8,  1, 12)  ( 11,  1, 63)  ( 10,  1, 51)
  0  0.5508E-02  0  0.1499E-02  0  0.7989E-03  1  0.7974E-03
   ( 11,  1, 69)  ( 11,  1, 63)  ( 11,  1, 65)  ( 11,  1, 58)

 MAXIMUM RESIDUAL FOR EACH ITERATION (1 INDICATES THE FIRST INNER ITERATION):

    RESIDUAL       RESIDUAL       RESIDUAL       RESIDUAL       RESIDUAL    
   LAYER,ROW,COL  LAYER,ROW,COL  LAYER,ROW,COL  LAYER,ROW,COL  LAYER,ROW,COL
 ---------------------------------------------------------------------------
  1 -0.1348E+06  0  0.9488E+05  0  0.9421E+05  0  0.7649E+05  0   6842.    
   ( 21,  1, 89)  ( 19,  1, 89)  ( 19,  1, 89)  ( 19,  1, 89)  ( 17,  1, 87)
  0  -3152.      0  -2537.      0  -1628.      1  -1436.    
   ( 17,  1, 88)  ( 22,  1, 87)  ( 22,  1, 87)  ( 22,  1, 87)


 FLOW MODEL IS TRANSIENT
 FLOW MODEL CONTAINS CONSTANT-HEAD CELLS


 MAXIMUM STEPSIZE DURING WHICH ANY PARTICLE CANNOT MOVE MORE THAN ONE CELL
 =  13.18    (WHEN MIN. R.F.=1)  AT K=  17, I=   1, J=  90

 MAXIMUM STEPSIZE WHICH MEETS STABILITY CRITERION OF THE ADVECTION TERM
 (FOR PURE FINITE-DIFFERENCE OPTION, MIXELM=0) 
 =  7.985    (WHEN MIN. R.F.=1)  AT K=  16, I=   1, J=  90


 TOTAL NUMBER OF POINT SOURCES/SINKS PRESENT IN THE FLOW MODEL =    30

 MAXIMUM STEPSIZE WHICH MEETS STABILITY CRITERION OF THE SINK & SOURCE TERM
 =  12.12    (WHEN MIN. R.F.=1)  AT K=  17, I=   1, J=  91

 MAXIMUM STEPSIZE WHICH MEETS STABILITY CRITERION OF THE DISPERSION TERM
 =  4.361    (WHEN MIN. R.F.=1)  AT K=  17, I=   1, J=  90
     1 CALLS TO GCG PACKAGE FOR TRANSPORT TIME STEP 694 IN FLOW TIME STEP   1 STRESS PERIOD   1
     8 TOTAL ITERATIONS
     1 CALLS TO GCG PACKAGE FOR TRANSPORT TIME STEP 694 IN FLOW TIME STEP   1 STRESS PERIOD   1
     8 TOTAL ITERATIONS
 
 SOLVING FOR HEAD 


     2 CALLS TO PCG ROUTINE FOR TIME STEP   1 IN STRESS PERIOD    1
     8 TOTAL ITERATIONS

 MAXIMUM HEAD CHANGE FOR EACH ITERATION (1 INDICATES THE FIRST INNER ITERATION):

    HEAD CHANGE    HEAD CHANGE    HEAD CHANGE    HEAD CHANGE    HEAD CHANGE 
   LAYER,ROW,COL  LAYER,ROW,COL  LAYER,ROW,COL  LAYER,ROW,COL  LAYER,ROW,COL
 ---------------------------------------------------------------------------
  1  0.1376E-01  0 -0.4270E-02  0 -0.3885E-02  0 -0.1200E-01  0  0.1294E-01
   ( 15,  1, 86)  ( 17,  1, 89)  (  8,  1, 12)  ( 11,  1, 57)  ( 11,  1, 57)
  0 -0.2150E-02  0 -0.8256E-03  1 -0.7958E-03
   ( 11,  1, 54)  ( 11,  1, 59)  ( 11,  1, 52)

 MAXIMUM RESIDUAL FOR EACH ITERATION (1 INDICATES THE FIRST INNER ITERATION):

    RESIDUAL       RESIDUAL       RESIDUAL       RESIDUAL       RESIDUAL    
   LAYER,ROW,COL  LAYER,ROW,COL  LAYER,ROW,COL  LAYER,ROW,COL  LAYER,ROW,COL
 ---------------------------------------------------------------------------
  1  0.1352E+06  0 -0.9603E+05  0 -0.9523E+05  0 -0.2604E+05  0   5345.    
   ( 21,  1, 89)  ( 19,  1, 89)  ( 19,  1, 89)  ( 19,  1, 89)  ( 17,  1, 88)
  0   2757.      0   2302.      1   1956.    
   ( 22,  1, 87)  ( 22,  1, 87)  ( 22,  1, 87)


 FLOW MODEL IS TRANSIENT
 FLOW MODEL CONTAINS CONSTANT-HEAD CELLS


 MAXIMUM STEPSIZE DURING WHICH ANY PARTICLE CANNOT MOVE MORE THAN ONE CELL
 =  12.85    (WHEN MIN. R.F.=1)  AT K=  17, I=   1, J=  90

 MAXIMUM STEPSIZE WHICH MEETS STABILITY CRITERION OF THE ADVECTION TERM
 (FOR PURE FINITE-DIFFERENCE OPTION, MIXELM=0) 
 =  8.035    (WHEN MIN. R.F.=1)  AT K=  16, I=   1, J=  90


 TOTAL NUMBER OF POINT SOURCES/SINKS PRESENT IN THE FLOW MODEL =    30

 MAXIMUM STEPSIZE WHICH MEETS STABILITY CRITERION OF THE SINK & SOURCE TERM
 =  12.21    (WHEN MIN. R.F.=1)  AT K=  17, I=   1, J=  91

 MAXIMUM STEPSIZE WHICH MEETS STABILITY CRITERION OF THE DISPERSION TERM
 =  4.026    (WHEN MIN. R.F.=1)  AT K=  17, I=   1, J=  90
     1 CALLS TO GCG PACKAGE FOR TRANSPORT TIME STEP 695 IN FLOW TIME STEP   1 STRESS PERIOD   1
     8 TOTAL ITERATIONS
  MAXIMUM CONCENTRATION CHANGES FOR EACH ITERATION:
  MAX. CHANGE LAYER,ROW,COL MAX. CHANGE LAYER,ROW,COL MAX. CHANGE LAYER,ROW,COL MAX. CHANGE LAYER,ROW,COL MAX. CHANGE LAYER,ROW,COL
 ------------------------------------------------------------------------------------------------------------------------------------
   0.5197E-01 ( 20,  1, 87)  0.4313E-02 ( 19,  1, 89)  0.2074E-02 ( 17,  1, 86)  0.4909E-03 ( 20,  1, 89)  0.9214E-04 ( 16,  1, 89)
   0.2128E-04 ( 20,  1, 89)  0.2304E-04 ( 16,  1, 90)  0.6263E-06 ( 17,  1, 90)
     1 CALLS TO GCG PACKAGE FOR TRANSPORT TIME STEP 695 IN FLOW TIME STEP   1 STRESS PERIOD   1
     8 TOTAL ITERATIONS
  MAXIMUM CONCENTRATION CHANGES FOR EACH ITERATION:
  MAX. CHANGE LAYER,ROW,COL MAX. CHANGE LAYER,ROW,COL MAX. CHANGE LAYER,ROW,COL MAX. CHANGE LAYER,ROW,COL MAX. CHANGE LAYER,ROW,COL
 ------------------------------------------------------------------------------------------------------------------------------------
   0.5805E-01 ( 20,  1, 87)  0.4898E-02 ( 19,  1, 89)  0.2059E-02 ( 18,  1, 86)  0.4409E-03 ( 20,  1, 89)  0.1074E-03 ( 16,  1, 89)
   0.1894E-04 ( 23,  1, 87)  0.1971E-04 ( 16,  1, 90)  0.8251E-06 ( 17,  1, 90)
 
 SOLVING FOR HEAD 


     2 CALLS TO PCG ROUTINE FOR TIME STEP   1 IN STRESS PERIOD    1
     9 TOTAL ITERATIONS

 MAXIMUM HEAD CHANGE FOR EACH ITERATION (1 INDICATES THE FIRST INNER ITERATION):

    HEAD CHANGE    HEAD CHANGE    HEAD CHANGE    HEAD CHANGE    HEAD CHANGE 
   LAYER,ROW,COL  LAYER,ROW,COL  LAYER,ROW,COL  LAYER,ROW,COL  LAYER,ROW,COL
 ---------------------------------------------------------------------------
  1 -0.1372E-01  0 -0.6007E-02  0  0.4884E-02  0  0.1682E-01  0 -0.1543E-01
   ( 15,  1, 86)  ( 11,  1, 51)  (  8,  1, 12)  ( 11,  1, 51)  ( 11,  1, 51)
  0 -0.2554E-02  0  0.1441E-02  0  0.5931E-03  1 -0.4706E-03
   ( 11,  1, 65)  ( 11,  1, 65)  ( 11,  1, 39)  ( 11,  1, 39)

 MAXIMUM RESIDUAL FOR EACH ITERATION (1 INDICATES THE FIRST INNER ITERATION):

    RESIDUAL       RESIDUAL       RESIDUAL       RESIDUAL       RESIDUAL    
   LAYER,ROW,COL  LAYER,ROW,COL  LAYER,ROW,COL  LAYER,ROW,COL  LAYER,ROW,COL
 ---------------------------------------------------------------------------
  1 -0.1352E+06  0  0.9562E+05  0  0.9503E+05  0  0.5267E+05  0  -5665.    
   ( 21,  1, 89)  ( 19,  1, 89)  ( 19,  1, 89)  ( 19,  1, 89)  ( 17,  1, 88)
  0  -2782.      0  -2542.      0  -1530.      1  -1358.    
   ( 17,  1, 88)  ( 22,  1, 87)  ( 22,  1, 87)  ( 22,  1, 87)


 FLOW MODEL IS TRANSIENT
 FLOW MODEL CONTAINS CONSTANT-HEAD CELLS


 MAXIMUM STEPSIZE DURING WHICH ANY PARTICLE CANNOT MOVE MORE THAN ONE CELL
 =  13.20    (WHEN MIN. R.F.=1)  AT K=  17, I=   1, J=  90

 MAXIMUM STEPSIZE WHICH MEETS STABILITY CRITERION OF THE ADVECTION TERM
 (FOR PURE FINITE-DIFFERENCE OPTION, MIXELM=0) 
 =  7.991    (WHEN MIN. R.F.=1)  AT K=  16, I=   1, J=  90


 TOTAL NUMBER OF POINT SOURCES/SINKS PRESENT IN THE FLOW MODEL =    30

 MAXIMUM STEPSIZE WHICH MEETS STABILITY CRITERION OF THE SINK & SOURCE TERM
 =  12.15    (WHEN MIN. R.F.=1)  AT K=  17, I=   1, J=  91

 MAXIMUM STEPSIZE WHICH MEETS STABILITY CRITERION OF THE DISPERSION TERM
 =  4.373    (WHEN MIN. R.F.=1)  AT K=  17, I=   1, J=  90
     1 CALLS TO GCG PACKAGE FOR TRANSPORT TIME STEP 696 IN FLOW TIME STEP   1 STRESS PERIOD   1
    10 TOTAL ITERATIONS
     1 CALLS TO GCG PACKAGE FOR TRANSPORT TIME STEP 696 IN FLOW TIME STEP   1 STRESS PERIOD   1
     8 TOTAL ITERATIONS
 
 SOLVING FOR HEAD 


     2 CALLS TO PCG ROUTINE FOR TIME STEP   1 IN STRESS PERIOD    1
     9 TOTAL ITERATIONS

 MAXIMUM HEAD CHANGE FOR EACH ITERATION (1 INDICATES THE FIRST INNER ITERATION):

    HEAD CHANGE    HEAD CHANGE    HEAD CHANGE    HEAD CHANGE    HEAD CHANGE 
   LAYER,ROW,COL  LAYER,ROW,COL  LAYER,ROW,COL  LAYER,ROW,COL  LAYER,ROW,COL
 ---------------------------------------------------------------------------
  1  0.1367E-01  0 -0.4246E-02  0 -0.3477E-02  0 -0.9627E-02  0  0.9281E-02
   ( 15,  1, 86)  ( 17,  1, 89)  (  8,  1, 12)  (  8,  1, 44)  (  6,  1, 44)
  0 -0.1909E-02  0 -0.1058E-02  0 -0.6082E-03  1  0.7989E-03
   ( 11,  1, 64)  ( 11,  1, 49)  ( 11,  1, 70)  ( 11,  1, 70)

 MAXIMUM RESIDUAL FOR EACH ITERATION (1 INDICATES THE FIRST INNER ITERATION):

    RESIDUAL       RESIDUAL       RESIDUAL       RESIDUAL       RESIDUAL    
   LAYER,ROW,COL  LAYER,ROW,COL  LAYER,ROW,COL  LAYER,ROW,COL  LAYER,ROW,COL
 ---------------------------------------------------------------------------
  1  0.1361E+06  0 -0.9670E+05  0 -0.9581E+05  0 -0.3937E+05  0   5935.    
   ( 21,  1, 89)  ( 19,  1, 89)  ( 19,  1, 89)  ( 19,  1, 89)  ( 17,  1, 88)
  0   2770.      0   2457.      0   843.4      1   729.9    
   ( 22,  1, 87)  ( 22,  1, 87)  ( 22,  1, 87)  ( 22,  1, 87)


 FLOW MODEL IS TRANSIENT
 FLOW MODEL CONTAINS CONSTANT-HEAD CELLS


 MAXIMUM STEPSIZE DURING WHICH ANY PARTICLE CANNOT MOVE MORE THAN ONE CELL
 =  12.86    (WHEN MIN. R.F.=1)  AT K=  17, I=   1, J=  90

 MAXIMUM STEPSIZE WHICH MEETS STABILITY CRITERION OF THE ADVECTION TERM
 (FOR PURE FINITE-DIFFERENCE OPTION, MIXELM=0) 
 =  8.039    (WHEN MIN. R.F.=1)  AT K=  16, I=   1, J=  90


 TOTAL NUMBER OF POINT SOURCES/SINKS PRESENT IN THE FLOW MODEL =    30

 MAXIMUM STEPSIZE WHICH MEETS STABILITY CRITERION OF THE SINK & SOURCE TERM
 =  12.22    (WHEN MIN. R.F.=1)  AT K=  17, I=   1, J=  91

 MAXIMUM STEPSIZE WHICH MEETS STABILITY CRITERION OF THE DISPERSION TERM
 =  4.027    (WHEN MIN. R.F.=1)  AT K=  17, I=   1, J=  90
     1 CALLS TO GCG PACKAGE FOR TRANSPORT TIME STEP 697 IN FLOW TIME STEP   1 STRESS PERIOD   1
     8 TOTAL ITERATIONS
     1 CALLS TO GCG PACKAGE FOR TRANSPORT TIME STEP 697 IN FLOW TIME STEP   1 STRESS PERIOD   1
     8 TOTAL ITERATIONS
 
 SOLVING FOR HEAD 


     2 CALLS TO PCG ROUTINE FOR TIME STEP   1 IN STRESS PERIOD    1
     9 TOTAL ITERATIONS

 MAXIMUM HEAD CHANGE FOR EACH ITERATION (1 INDICATES THE FIRST INNER ITERATION):

    HEAD CHANGE    HEAD CHANGE    HEAD CHANGE    HEAD CHANGE    HEAD CHANGE 
   LAYER,ROW,COL  LAYER,ROW,COL  LAYER,ROW,COL  LAYER,ROW,COL  LAYER,ROW,COL
 ---------------------------------------------------------------------------
  1 -0.1343E-01  0  0.3899E-02  0  0.2940E-02  0  0.1286E-01  0 -0.1364E-01
   ( 15,  1, 86)  ( 17,  1, 89)  (  8,  1, 12)  ( 11,  1, 53)  ( 11,  1, 53)
  0  0.1739E-02  0  0.1350E-02  0  0.5128E-03  1 -0.3676E-03
   ( 11,  1, 49)  ( 11,  1, 65)  ( 11,  1, 35)  ( 11,  1, 39)

 MAXIMUM RESIDUAL FOR EACH ITERATION (1 INDICATES THE FIRST INNER ITERATION):

    RESIDUAL       RESIDUAL       RESIDUAL       RESIDUAL       RESIDUAL    
   LAYER,ROW,COL  LAYER,ROW,COL  LAYER,ROW,COL  LAYER,ROW,COL  LAYER,ROW,COL
 ---------------------------------------------------------------------------
  1 -0.1338E+06  0  0.9459E+05  0  0.9357E+05  0  0.2543E+05  0   5446.    
   ( 21,  1, 89)  ( 19,  1, 89)  ( 19,  1, 89)  ( 19,  1, 89)  ( 17,  1, 87)
  0  -2792.      0  -2409.      0  -866.9      1  -770.0    
   ( 22,  1, 87)  ( 22,  1, 87)  ( 22,  1, 87)  ( 22,  1, 87)


 FLOW MODEL IS TRANSIENT
 FLOW MODEL CONTAINS CONSTANT-HEAD CELLS


 MAXIMUM STEPSIZE DURING WHICH ANY PARTICLE CANNOT MOVE MORE THAN ONE CELL
 =  13.24    (WHEN MIN. R.F.=1)  AT K=  17, I=   1, J=  90

 MAXIMUM STEPSIZE WHICH MEETS STABILITY CRITERION OF THE ADVECTION TERM
 (FOR PURE FINITE-DIFFERENCE OPTION, MIXELM=0) 
 =  8.008    (WHEN MIN. R.F.=1)  AT K=  16, I=   1, J=  90


 TOTAL NUMBER OF POINT SOURCES/SINKS PRESENT IN THE FLOW MODEL =    30

 MAXIMUM STEPSIZE WHICH MEETS STABILITY CRITERION OF THE SINK & SOURCE TERM
 =  12.19    (WHEN MIN. R.F.=1)  AT K=  17, I=   1, J=  91

 MAXIMUM STEPSIZE WHICH MEETS STABILITY CRITERION OF THE DISPERSION TERM
 =  4.384    (WHEN MIN. R.F.=1)  AT K=  17, I=   1, J=  90
     1 CALLS TO GCG PACKAGE FOR TRANSPORT TIME STEP 698 IN FLOW TIME STEP   1 STRESS PERIOD   1
     9 TOTAL ITERATIONS
     1 CALLS TO GCG PACKAGE FOR TRANSPORT TIME STEP 698 IN FLOW TIME STEP   1 STRESS PERIOD   1
     8 TOTAL ITERATIONS
 
 SOLVING FOR HEAD 


     2 CALLS TO PCG ROUTINE FOR TIME STEP   1 IN STRESS PERIOD    1
     9 TOTAL ITERATIONS

 MAXIMUM HEAD CHANGE FOR EACH ITERATION (1 INDICATES THE FIRST INNER ITERATION):

    HEAD CHANGE    HEAD CHANGE    HEAD CHANGE    HEAD CHANGE    HEAD CHANGE 
   LAYER,ROW,COL  LAYER,ROW,COL  LAYER,ROW,COL  LAYER,ROW,COL  LAYER,ROW,COL
 ---------------------------------------------------------------------------
  1  0.1340E-01  0 -0.3772E-02  0 -0.2332E-02  0 -0.8406E-02  0  0.8749E-02
   ( 15,  1, 86)  ( 17,  1, 89)  (  7,  1, 12)  (  7,  1, 46)  (  7,  1, 46)
  0  0.1102E-02  0 -0.1093E-02  0 -0.6479E-03  1  0.9156E-03
   ( 11,  1, 49)  ( 11,  1, 49)  ( 11,  1, 65)  ( 11,  1, 70)

 MAXIMUM RESIDUAL FOR EACH ITERATION (1 INDICATES THE FIRST INNER ITERATION):

    RESIDUAL       RESIDUAL       RESIDUAL       RESIDUAL       RESIDUAL    
   LAYER,ROW,COL  LAYER,ROW,COL  LAYER,ROW,COL  LAYER,ROW,COL  LAYER,ROW,COL
 ---------------------------------------------------------------------------
  1  0.1341E+06  0 -0.9389E+05  0 -0.9179E+05  0 -0.3477E+05  0  -5991.    
   ( 21,  1, 89)  ( 19,  1, 89)  ( 19,  1, 89)  ( 19,  1, 89)  ( 17,  1, 87)
  0   2906.      0   2237.      0   829.3      1   692.9    
   ( 22,  1, 87)  ( 22,  1, 87)  ( 22,  1, 87)  ( 22,  1, 87)


 FLOW MODEL IS TRANSIENT
 FLOW MODEL CONTAINS CONSTANT-HEAD CELLS


 MAXIMUM STEPSIZE DURING WHICH ANY PARTICLE CANNOT MOVE MORE THAN ONE CELL
 =  12.87    (WHEN MIN. R.F.=1)  AT K=  17, I=   1, J=  90

 MAXIMUM STEPSIZE WHICH MEETS STABILITY CRITERION OF THE ADVECTION TERM
 (FOR PURE FINITE-DIFFERENCE OPTION, MIXELM=0) 
 =  8.038    (WHEN MIN. R.F.=1)  AT K=  16, I=   1, J=  90


 TOTAL NUMBER OF POINT SOURCES/SINKS PRESENT IN THE FLOW MODEL =    30

 MAXIMUM STEPSIZE WHICH MEETS STABILITY CRITERION OF THE SINK & SOURCE TERM
 =  12.22    (WHEN MIN. R.F.=1)  AT K=  17, I=   1, J=  91

 MAXIMUM STEPSIZE WHICH MEETS STABILITY CRITERION OF THE DISPERSION TERM
 =  4.036    (WHEN MIN. R.F.=1)  AT K=  17, I=   1, J=  90
     1 CALLS TO GCG PACKAGE FOR TRANSPORT TIME STEP 699 IN FLOW TIME STEP   1 STRESS PERIOD   1
     8 TOTAL ITERATIONS
     1 CALLS TO GCG PACKAGE FOR TRANSPORT TIME STEP 699 IN FLOW TIME STEP   1 STRESS PERIOD   1
     8 TOTAL ITERATIONS
 
 SOLVING FOR HEAD 


     2 CALLS TO PCG ROUTINE FOR TIME STEP   1 IN STRESS PERIOD    1
     9 TOTAL ITERATIONS

 MAXIMUM HEAD CHANGE FOR EACH ITERATION (1 INDICATES THE FIRST INNER ITERATION):

    HEAD CHANGE    HEAD CHANGE    HEAD CHANGE    HEAD CHANGE    HEAD CHANGE 
   LAYER,ROW,COL  LAYER,ROW,COL  LAYER,ROW,COL  LAYER,ROW,COL  LAYER,ROW,COL
 ---------------------------------------------------------------------------
  1 -0.1348E-01  0  0.3748E-02  0  0.3033E-02  0  0.1255E-01  0 -0.1297E-01
   ( 15,  1, 86)  ( 17,  1, 89)  (  8,  1, 12)  ( 11,  1, 53)  ( 11,  1, 53)
  0  0.1379E-02  0  0.1008E-02  0  0.5283E-03  1 -0.4471E-03
   ( 11,  1, 50)  ( 11,  1, 64)  ( 11,  1, 35)  ( 11,  1, 70)

 MAXIMUM RESIDUAL FOR EACH ITERATION (1 INDICATES THE FIRST INNER ITERATION):

    RESIDUAL       RESIDUAL       RESIDUAL       RESIDUAL       RESIDUAL    
   LAYER,ROW,COL  LAYER,ROW,COL  LAYER,ROW,COL  LAYER,ROW,COL  LAYER,ROW,COL
 ---------------------------------------------------------------------------
  1 -0.1352E+06  0  0.9561E+05  0  0.9460E+05  0  0.2846E+05  0   5471.    
   ( 21,  1, 89)  ( 19,  1, 89)  ( 19,  1, 89)  ( 19,  1, 89)  ( 17,  1, 87)
  0  -2805.      0  -2208.      0  -835.2      1  -715.1    
   ( 22,  1, 87)  ( 22,  1, 87)  ( 22,  1, 87)  ( 22,  1, 87)


 FLOW MODEL IS TRANSIENT
 FLOW MODEL CONTAINS CONSTANT-HEAD CELLS


 MAXIMUM STEPSIZE DURING WHICH ANY PARTICLE CANNOT MOVE MORE THAN ONE CELL
 =  13.22    (WHEN MIN. R.F.=1)  AT K=  17, I=   1, J=  90

 MAXIMUM STEPSIZE WHICH MEETS STABILITY CRITERION OF THE ADVECTION TERM
 (FOR PURE FINITE-DIFFERENCE OPTION, MIXELM=0) 
 =  8.003    (WHEN MIN. R.F.=1)  AT K=  16, I=   1, J=  90


 TOTAL NUMBER OF POINT SOURCES/SINKS PRESENT IN THE FLOW MODEL =    30

 MAXIMUM STEPSIZE WHICH MEETS STABILITY CRITERION OF THE SINK & SOURCE TERM
 =  12.18    (WHEN MIN. R.F.=1)  AT K=  17, I=   1, J=  91

 MAXIMUM STEPSIZE WHICH MEETS STABILITY CRITERION OF THE DISPERSION TERM
 =  4.369    (WHEN MIN. R.F.=1)  AT K=  17, I=   1, J=  90
     1 CALLS TO GCG PACKAGE FOR TRANSPORT TIME STEP 700 IN FLOW TIME STEP   1 STRESS PERIOD   1
     9 TOTAL ITERATIONS
  MAXIMUM CONCENTRATION CHANGES FOR EACH ITERATION:
  MAX. CHANGE LAYER,ROW,COL MAX. CHANGE LAYER,ROW,COL MAX. CHANGE LAYER,ROW,COL MAX. CHANGE LAYER,ROW,COL MAX. CHANGE LAYER,ROW,COL
 ------------------------------------------------------------------------------------------------------------------------------------
   0.4932E-01 ( 20,  1, 87)  0.3362E-02 ( 19,  1, 87)  0.2246E-02 ( 18,  1, 87)  0.2195E-03 ( 16,  1, 88)  0.1414E-03 ( 16,  1, 89)
   0.3067E-04 ( 16,  1, 90)  0.1482E-05 ( 21,  1, 78)  0.3095E-05 ( 21,  1, 78)  0.8235E-06 ( 16,  1, 89)
     1 CALLS TO GCG PACKAGE FOR TRANSPORT TIME STEP 700 IN FLOW TIME STEP   1 STRESS PERIOD   1
     8 TOTAL ITERATIONS
  MAXIMUM CONCENTRATION CHANGES FOR EACH ITERATION:
  MAX. CHANGE LAYER,ROW,COL MAX. CHANGE LAYER,ROW,COL MAX. CHANGE LAYER,ROW,COL MAX. CHANGE LAYER,ROW,COL MAX. CHANGE LAYER,ROW,COL
 ------------------------------------------------------------------------------------------------------------------------------------
   0.5374E-01 ( 20,  1, 87)  0.3673E-02 ( 19,  1, 87)  0.2343E-02 ( 18,  1, 87)  0.2222E-03 ( 16,  1, 88)  0.1362E-03 ( 16,  1, 89)
   0.3511E-04 ( 16,  1, 90)  0.5035E-05 ( 17,  1, 90)  0.5651E-06 ( 16,  1, 89)



 >>>>>>>>>>>>>>>>>>>>>>>>>>>>>>>>>>>>>>>>>>>>>>>>>>>>>>>FOR COMPONENT NO. 01<<<<<<<<<<<<<<<<<<<<<<<<<<<<<<<<<<<<<<<<<<<<<<<<<<<<<<<


                                            -------------------------------------------
                                                      TRANSPORT STEP NO.  700
                                            -------------------------------------------

 TOTAL ELAPSED TIME SINCE BEGINNING OF SIMULATION =   35000.00    D   
 .....................................................................

                     CUMMULATIVE MASS BUDGETS AT END OF TRANSPORT STEP  700, TIME STEP    1, STRESS PERIOD    1
                     ------------------------------------------------------------------------------------------

                                                             IN                           OUT
                                                      ----------------             ----------------
                               CONSTANT CONCENTRATION:    0.000000                    0.000000    
                                        CONSTANT HEAD:   0.1384973E+10              -0.1384764E+10
                                                WELLS:    0.000000                    0.000000    
                                             RECHARGE:    0.000000                    0.000000    
                               1ST/0TH ORDER REACTION:    0.000000                    0.000000    
                                MASS STORAGE (SOLUTE):   0.1936252E+09              -0.1938336E+09
                            ---------------------------------------------------------------------------
                                              [TOTAL]:   0.1578599E+10 KG           -0.1578600E+10 KG  

                                                          NET (IN - OUT):   -258.4220    
                                                   DISCREPANCY (PERCENT):  -0.1637034E-04



 >>>>>>>>>>>>>>>>>>>>>>>>>>>>>>>>>>>>>>>>>>>>>>>>>>>>>>>FOR COMPONENT NO. 02<<<<<<<<<<<<<<<<<<<<<<<<<<<<<<<<<<<<<<<<<<<<<<<<<<<<<<<


                                            -------------------------------------------
                                                      TRANSPORT STEP NO.  700
                                            -------------------------------------------

 TOTAL ELAPSED TIME SINCE BEGINNING OF SIMULATION =   35000.00    D   
 .....................................................................

                     CUMMULATIVE MASS BUDGETS AT END OF TRANSPORT STEP  700, TIME STEP    1, STRESS PERIOD    1
                     ------------------------------------------------------------------------------------------

                                                             IN                           OUT
                                                      ----------------             ----------------
                               CONSTANT CONCENTRATION:    0.000000                    0.000000    
                                        CONSTANT HEAD:    0.000000                  -0.2629206E+12
                                                WELLS:    0.000000                    0.000000    
                                             RECHARGE:    0.000000                    0.000000    
                               1ST/0TH ORDER REACTION:   0.5792500E+12                0.000000    
                                MASS STORAGE (SOLUTE):   0.9457784E+11              -0.4109074E+12
                            ---------------------------------------------------------------------------
                                              [TOTAL]:   0.6738292E+12 KG           -0.6738293E+12 KG  

                                                          NET (IN - OUT):   -90216.16    
                                                   DISCREPANCY (PERCENT):  -0.1338858E-04
 
 SOLVING FOR HEAD 


     2 CALLS TO PCG ROUTINE FOR TIME STEP   1 IN STRESS PERIOD    1
     8 TOTAL ITERATIONS

 MAXIMUM HEAD CHANGE FOR EACH ITERATION (1 INDICATES THE FIRST INNER ITERATION):

    HEAD CHANGE    HEAD CHANGE    HEAD CHANGE    HEAD CHANGE    HEAD CHANGE 
   LAYER,ROW,COL  LAYER,ROW,COL  LAYER,ROW,COL  LAYER,ROW,COL  LAYER,ROW,COL
 ---------------------------------------------------------------------------
  1  0.1351E-01  0 -0.3674E-02  0 -0.2316E-02  0 -0.8849E-02  0  0.8913E-02
   ( 15,  1, 86)  ( 17,  1, 89)  (  7,  1, 12)  (  9,  1, 46)  (  7,  1, 46)
  0  0.1402E-02  0 -0.9949E-03  1 -0.6931E-03
   ( 11,  1, 49)  ( 11,  1, 58)  ( 11,  1, 64)

 MAXIMUM RESIDUAL FOR EACH ITERATION (1 INDICATES THE FIRST INNER ITERATION):

    RESIDUAL       RESIDUAL       RESIDUAL       RESIDUAL       RESIDUAL    
   LAYER,ROW,COL  LAYER,ROW,COL  LAYER,ROW,COL  LAYER,ROW,COL  LAYER,ROW,COL
 ---------------------------------------------------------------------------
  1  0.1325E+06  0 -0.9272E+05  0 -0.9076E+05  0 -0.4032E+05  0  -6038.    
   ( 21,  1, 89)  ( 19,  1, 89)  ( 19,  1, 89)  ( 19,  1, 89)  ( 17,  1, 87)
  0   2908.      0   2495.      1   2066.    
   ( 22,  1, 87)  ( 22,  1, 87)  ( 22,  1, 87)


 FLOW MODEL IS TRANSIENT
 FLOW MODEL CONTAINS CONSTANT-HEAD CELLS


 MAXIMUM STEPSIZE DURING WHICH ANY PARTICLE CANNOT MOVE MORE THAN ONE CELL
 =  12.85    (WHEN MIN. R.F.=1)  AT K=  17, I=   1, J=  90

 MAXIMUM STEPSIZE WHICH MEETS STABILITY CRITERION OF THE ADVECTION TERM
 (FOR PURE FINITE-DIFFERENCE OPTION, MIXELM=0) 
 =  8.030    (WHEN MIN. R.F.=1)  AT K=  16, I=   1, J=  90


 TOTAL NUMBER OF POINT SOURCES/SINKS PRESENT IN THE FLOW MODEL =    30

 MAXIMUM STEPSIZE WHICH MEETS STABILITY CRITERION OF THE SINK & SOURCE TERM
 =  12.20    (WHEN MIN. R.F.=1)  AT K=  17, I=   1, J=  91

 MAXIMUM STEPSIZE WHICH MEETS STABILITY CRITERION OF THE DISPERSION TERM
 =  4.031    (WHEN MIN. R.F.=1)  AT K=  17, I=   1, J=  90
     1 CALLS TO GCG PACKAGE FOR TRANSPORT TIME STEP 701 IN FLOW TIME STEP   1 STRESS PERIOD   1
     8 TOTAL ITERATIONS
     1 CALLS TO GCG PACKAGE FOR TRANSPORT TIME STEP 701 IN FLOW TIME STEP   1 STRESS PERIOD   1
     8 TOTAL ITERATIONS
 
 SOLVING FOR HEAD 


     2 CALLS TO PCG ROUTINE FOR TIME STEP   1 IN STRESS PERIOD    1
     8 TOTAL ITERATIONS

 MAXIMUM HEAD CHANGE FOR EACH ITERATION (1 INDICATES THE FIRST INNER ITERATION):

    HEAD CHANGE    HEAD CHANGE    HEAD CHANGE    HEAD CHANGE    HEAD CHANGE 
   LAYER,ROW,COL  LAYER,ROW,COL  LAYER,ROW,COL  LAYER,ROW,COL  LAYER,ROW,COL
 ---------------------------------------------------------------------------
  1 -0.1372E-01  0  0.5866E-02  0  0.4015E-02  0 -0.1332E-01  0  0.1086E-01
   ( 15,  1, 86)  ( 11,  1, 49)  (  8,  1, 12)  ( 11,  1, 49)  ( 11,  1, 50)
  0 -0.3848E-02  0  0.9830E-03  1  0.4877E-03
   ( 11,  1, 53)  ( 11,  1, 53)  ( 10,  1, 47)

 MAXIMUM RESIDUAL FOR EACH ITERATION (1 INDICATES THE FIRST INNER ITERATION):

    RESIDUAL       RESIDUAL       RESIDUAL       RESIDUAL       RESIDUAL    
   LAYER,ROW,COL  LAYER,ROW,COL  LAYER,ROW,COL  LAYER,ROW,COL  LAYER,ROW,COL
 ---------------------------------------------------------------------------
  1 -0.1360E+06  0  0.9657E+05  0  0.9578E+05  0  0.6141E+05  0   5745.    
   ( 21,  1, 89)  ( 19,  1, 89)  ( 19,  1, 89)  ( 19,  1, 89)  ( 17,  1, 87)
  0  -2787.      0  -2561.      1  -2034.    
   ( 17,  1, 88)  ( 22,  1, 87)  ( 22,  1, 87)


 FLOW MODEL IS TRANSIENT
 FLOW MODEL CONTAINS CONSTANT-HEAD CELLS


 MAXIMUM STEPSIZE DURING WHICH ANY PARTICLE CANNOT MOVE MORE THAN ONE CELL
 =  13.16    (WHEN MIN. R.F.=1)  AT K=  17, I=   1, J=  90

 MAXIMUM STEPSIZE WHICH MEETS STABILITY CRITERION OF THE ADVECTION TERM
 (FOR PURE FINITE-DIFFERENCE OPTION, MIXELM=0) 
 =  7.979    (WHEN MIN. R.F.=1)  AT K=  16, I=   1, J=  90


 TOTAL NUMBER OF POINT SOURCES/SINKS PRESENT IN THE FLOW MODEL =    30

 MAXIMUM STEPSIZE WHICH MEETS STABILITY CRITERION OF THE SINK & SOURCE TERM
 =  12.09    (WHEN MIN. R.F.=1)  AT K=  17, I=   1, J=  91

 MAXIMUM STEPSIZE WHICH MEETS STABILITY CRITERION OF THE DISPERSION TERM
 =  4.341    (WHEN MIN. R.F.=1)  AT K=  17, I=   1, J=  90
     1 CALLS TO GCG PACKAGE FOR TRANSPORT TIME STEP 702 IN FLOW TIME STEP   1 STRESS PERIOD   1
    10 TOTAL ITERATIONS
     1 CALLS TO GCG PACKAGE FOR TRANSPORT TIME STEP 702 IN FLOW TIME STEP   1 STRESS PERIOD   1
     8 TOTAL ITERATIONS
 
 SOLVING FOR HEAD 


     2 CALLS TO PCG ROUTINE FOR TIME STEP   1 IN STRESS PERIOD    1
     9 TOTAL ITERATIONS

 MAXIMUM HEAD CHANGE FOR EACH ITERATION (1 INDICATES THE FIRST INNER ITERATION):

    HEAD CHANGE    HEAD CHANGE    HEAD CHANGE    HEAD CHANGE    HEAD CHANGE 
   LAYER,ROW,COL  LAYER,ROW,COL  LAYER,ROW,COL  LAYER,ROW,COL  LAYER,ROW,COL
 ---------------------------------------------------------------------------
  1  0.1394E-01  0  0.8883E-02  0 -0.4604E-02  0 -0.9435E-02  0  0.5880E-02
   ( 15,  1, 86)  (  7,  1, 44)  (  7,  1, 12)  (  7,  1, 46)  (  7,  1, 47)
  0  0.3511E-02  0 -0.1743E-02  0 -0.7440E-03  1  0.5630E-03
   ( 11,  1, 53)  ( 11,  1, 53)  ( 11,  1, 64)  ( 11,  1, 64)

 MAXIMUM RESIDUAL FOR EACH ITERATION (1 INDICATES THE FIRST INNER ITERATION):

    RESIDUAL       RESIDUAL       RESIDUAL       RESIDUAL       RESIDUAL    
   LAYER,ROW,COL  LAYER,ROW,COL  LAYER,ROW,COL  LAYER,ROW,COL  LAYER,ROW,COL
 ---------------------------------------------------------------------------
  1  0.1353E+06  0 -0.9672E+05  0 -0.9605E+05  0 -0.8018E+05  0   6222.    
   ( 21,  1, 89)  ( 19,  1, 89)  ( 19,  1, 89)  ( 19,  1, 89)  ( 17,  1, 88)
  0   2825.      0   2548.      0   1113.      1   975.9    
   ( 17,  1, 88)  ( 22,  1, 87)  ( 22,  1, 87)  ( 22,  1, 87)


 FLOW MODEL IS TRANSIENT
 FLOW MODEL CONTAINS CONSTANT-HEAD CELLS


 MAXIMUM STEPSIZE DURING WHICH ANY PARTICLE CANNOT MOVE MORE THAN ONE CELL
 =  12.87    (WHEN MIN. R.F.=1)  AT K=  17, I=   1, J=  90

 MAXIMUM STEPSIZE WHICH MEETS STABILITY CRITERION OF THE ADVECTION TERM
 (FOR PURE FINITE-DIFFERENCE OPTION, MIXELM=0) 
 =  8.043    (WHEN MIN. R.F.=1)  AT K=  16, I=   1, J=  90


 TOTAL NUMBER OF POINT SOURCES/SINKS PRESENT IN THE FLOW MODEL =    30

 MAXIMUM STEPSIZE WHICH MEETS STABILITY CRITERION OF THE SINK & SOURCE TERM
 =  12.21    (WHEN MIN. R.F.=1)  AT K=  17, I=   1, J=  91

 MAXIMUM STEPSIZE WHICH MEETS STABILITY CRITERION OF THE DISPERSION TERM
 =  4.029    (WHEN MIN. R.F.=1)  AT K=  17, I=   1, J=  90
     1 CALLS TO GCG PACKAGE FOR TRANSPORT TIME STEP 703 IN FLOW TIME STEP   1 STRESS PERIOD   1
     8 TOTAL ITERATIONS
     1 CALLS TO GCG PACKAGE FOR TRANSPORT TIME STEP 703 IN FLOW TIME STEP   1 STRESS PERIOD   1
     8 TOTAL ITERATIONS
 
 SOLVING FOR HEAD 


     2 CALLS TO PCG ROUTINE FOR TIME STEP   1 IN STRESS PERIOD    1
     9 TOTAL ITERATIONS

 MAXIMUM HEAD CHANGE FOR EACH ITERATION (1 INDICATES THE FIRST INNER ITERATION):

    HEAD CHANGE    HEAD CHANGE    HEAD CHANGE    HEAD CHANGE    HEAD CHANGE 
   LAYER,ROW,COL  LAYER,ROW,COL  LAYER,ROW,COL  LAYER,ROW,COL  LAYER,ROW,COL
 ---------------------------------------------------------------------------
  1 -0.1352E-01  0  0.4019E-02  0  0.3205E-02  0  0.6697E-02  0 -0.8227E-02
   ( 15,  1, 86)  ( 17,  1, 89)  (  8,  1, 12)  ( 11,  1, 49)  ( 11,  1, 58)
  0  0.2140E-02  0 -0.1050E-02  0  0.7554E-03  1 -0.3612E-03
   ( 11,  1, 54)  ( 11,  1, 53)  ( 11,  1, 53)  ( 11,  1, 66)

 MAXIMUM RESIDUAL FOR EACH ITERATION (1 INDICATES THE FIRST INNER ITERATION):

    RESIDUAL       RESIDUAL       RESIDUAL       RESIDUAL       RESIDUAL    
   LAYER,ROW,COL  LAYER,ROW,COL  LAYER,ROW,COL  LAYER,ROW,COL  LAYER,ROW,COL
 ---------------------------------------------------------------------------
  1 -0.1322E+06  0  0.9332E+05  0  0.9241E+05  0  0.1703E+05  0  -4592.    
   ( 21,  1, 89)  ( 19,  1, 89)  ( 19,  1, 89)  ( 19,  1, 89)  ( 17,  1, 88)
  0  -2832.      0  -2448.      0  -653.1      1  -551.5    
   ( 22,  1, 87)  ( 22,  1, 87)  ( 22,  1, 87)  ( 22,  1, 87)


 FLOW MODEL IS TRANSIENT
 FLOW MODEL CONTAINS CONSTANT-HEAD CELLS


 MAXIMUM STEPSIZE DURING WHICH ANY PARTICLE CANNOT MOVE MORE THAN ONE CELL
 =  13.24    (WHEN MIN. R.F.=1)  AT K=  17, I=   1, J=  90

 MAXIMUM STEPSIZE WHICH MEETS STABILITY CRITERION OF THE ADVECTION TERM
 (FOR PURE FINITE-DIFFERENCE OPTION, MIXELM=0) 
 =  8.009    (WHEN MIN. R.F.=1)  AT K=  16, I=   1, J=  90


 TOTAL NUMBER OF POINT SOURCES/SINKS PRESENT IN THE FLOW MODEL =    30

 MAXIMUM STEPSIZE WHICH MEETS STABILITY CRITERION OF THE SINK & SOURCE TERM
 =  12.18    (WHEN MIN. R.F.=1)  AT K=  17, I=   1, J=  91

 MAXIMUM STEPSIZE WHICH MEETS STABILITY CRITERION OF THE DISPERSION TERM
 =  4.385    (WHEN MIN. R.F.=1)  AT K=  17, I=   1, J=  90
     1 CALLS TO GCG PACKAGE FOR TRANSPORT TIME STEP 704 IN FLOW TIME STEP   1 STRESS PERIOD   1
     9 TOTAL ITERATIONS
     1 CALLS TO GCG PACKAGE FOR TRANSPORT TIME STEP 704 IN FLOW TIME STEP   1 STRESS PERIOD   1
     8 TOTAL ITERATIONS
 
 SOLVING FOR HEAD 


     2 CALLS TO PCG ROUTINE FOR TIME STEP   1 IN STRESS PERIOD    1
     9 TOTAL ITERATIONS

 MAXIMUM HEAD CHANGE FOR EACH ITERATION (1 INDICATES THE FIRST INNER ITERATION):

    HEAD CHANGE    HEAD CHANGE    HEAD CHANGE    HEAD CHANGE    HEAD CHANGE 
   LAYER,ROW,COL  LAYER,ROW,COL  LAYER,ROW,COL  LAYER,ROW,COL  LAYER,ROW,COL
 ---------------------------------------------------------------------------
  1  0.1328E-01  0 -0.3762E-02  0 -0.2743E-02  0 -0.7370E-02  0  0.8400E-02
   ( 15,  1, 86)  ( 17,  1, 89)  (  7,  1, 12)  ( 10,  1, 53)  (  9,  1, 52)
  0 -0.1331E-02  0 -0.1283E-02  0 -0.7209E-03  1  0.8495E-03
   ( 11,  1, 66)  ( 11,  1, 61)  ( 11,  1, 70)  ( 11,  1, 70)

 MAXIMUM RESIDUAL FOR EACH ITERATION (1 INDICATES THE FIRST INNER ITERATION):

    RESIDUAL       RESIDUAL       RESIDUAL       RESIDUAL       RESIDUAL    
   LAYER,ROW,COL  LAYER,ROW,COL  LAYER,ROW,COL  LAYER,ROW,COL  LAYER,ROW,COL
 ---------------------------------------------------------------------------
  1  0.1345E+06  0 -0.9466E+05  0 -0.9045E+05  0 -0.3282E+05  0  -6004.    
   ( 21,  1, 89)  ( 19,  1, 89)  ( 19,  1, 89)  ( 19,  1, 89)  ( 17,  1, 87)
  0   2860.      0   2409.      0   786.8      1   664.3    
   ( 22,  1, 87)  ( 22,  1, 87)  ( 22,  1, 87)  ( 22,  1, 87)


 FLOW MODEL IS TRANSIENT
 FLOW MODEL CONTAINS CONSTANT-HEAD CELLS


 MAXIMUM STEPSIZE DURING WHICH ANY PARTICLE CANNOT MOVE MORE THAN ONE CELL
 =  12.85    (WHEN MIN. R.F.=1)  AT K=  17, I=   1, J=  90

 MAXIMUM STEPSIZE WHICH MEETS STABILITY CRITERION OF THE ADVECTION TERM
 (FOR PURE FINITE-DIFFERENCE OPTION, MIXELM=0) 
 =  8.033    (WHEN MIN. R.F.=1)  AT K=  16, I=   1, J=  90


 TOTAL NUMBER OF POINT SOURCES/SINKS PRESENT IN THE FLOW MODEL =    30

 MAXIMUM STEPSIZE WHICH MEETS STABILITY CRITERION OF THE SINK & SOURCE TERM
 =  12.20    (WHEN MIN. R.F.=1)  AT K=  17, I=   1, J=  91

 MAXIMUM STEPSIZE WHICH MEETS STABILITY CRITERION OF THE DISPERSION TERM
 =  4.027    (WHEN MIN. R.F.=1)  AT K=  17, I=   1, J=  90
     1 CALLS TO GCG PACKAGE FOR TRANSPORT TIME STEP 705 IN FLOW TIME STEP   1 STRESS PERIOD   1
     8 TOTAL ITERATIONS
  MAXIMUM CONCENTRATION CHANGES FOR EACH ITERATION:
  MAX. CHANGE LAYER,ROW,COL MAX. CHANGE LAYER,ROW,COL MAX. CHANGE LAYER,ROW,COL MAX. CHANGE LAYER,ROW,COL MAX. CHANGE LAYER,ROW,COL
 ------------------------------------------------------------------------------------------------------------------------------------
   0.5271E-01 ( 20,  1, 87)  0.4225E-02 ( 19,  1, 89)  0.2145E-02 ( 17,  1, 86)  0.4741E-03 ( 20,  1, 89)  0.9527E-04 ( 16,  1, 89)
   0.2007E-04 ( 20,  1, 89)  0.1918E-04 ( 16,  1, 90)  0.7485E-06 ( 17,  1, 90)
     1 CALLS TO GCG PACKAGE FOR TRANSPORT TIME STEP 705 IN FLOW TIME STEP   1 STRESS PERIOD   1
     8 TOTAL ITERATIONS
  MAXIMUM CONCENTRATION CHANGES FOR EACH ITERATION:
  MAX. CHANGE LAYER,ROW,COL MAX. CHANGE LAYER,ROW,COL MAX. CHANGE LAYER,ROW,COL MAX. CHANGE LAYER,ROW,COL MAX. CHANGE LAYER,ROW,COL
 ------------------------------------------------------------------------------------------------------------------------------------
   0.5767E-01 ( 20,  1, 87)  0.4708E-02 ( 19,  1, 89)  0.2123E-02 ( 18,  1, 86)  0.4425E-03 ( 20,  1, 89)  0.1074E-03 ( 16,  1, 89)
   0.1737E-04 ( 23,  1, 87)  0.1719E-04 ( 16,  1, 90)  0.8280E-06 ( 17,  1, 90)
 
 SOLVING FOR HEAD 


     2 CALLS TO PCG ROUTINE FOR TIME STEP   1 IN STRESS PERIOD    1
     9 TOTAL ITERATIONS

 MAXIMUM HEAD CHANGE FOR EACH ITERATION (1 INDICATES THE FIRST INNER ITERATION):

    HEAD CHANGE    HEAD CHANGE    HEAD CHANGE    HEAD CHANGE    HEAD CHANGE 
   LAYER,ROW,COL  LAYER,ROW,COL  LAYER,ROW,COL  LAYER,ROW,COL  LAYER,ROW,COL
 ---------------------------------------------------------------------------
  1 -0.1344E-01  0  0.3707E-02  0  0.3015E-02  0 -0.8533E-02  0  0.9203E-02
   ( 15,  1, 86)  ( 17,  1, 89)  (  8,  1, 12)  ( 11,  1, 49)  ( 11,  1, 49)
  0 -0.1933E-02  0  0.1025E-02  0  0.5196E-03  1 -0.5623E-03
   ( 11,  1, 50)  ( 11,  1, 65)  ( 11,  1, 40)  ( 11,  1, 66)

 MAXIMUM RESIDUAL FOR EACH ITERATION (1 INDICATES THE FIRST INNER ITERATION):

    RESIDUAL       RESIDUAL       RESIDUAL       RESIDUAL       RESIDUAL    
   LAYER,ROW,COL  LAYER,ROW,COL  LAYER,ROW,COL  LAYER,ROW,COL  LAYER,ROW,COL
 ---------------------------------------------------------------------------
  1 -0.1334E+06  0  0.9361E+05  0  0.9262E+05  0  0.2363E+05  0   5143.    
   ( 21,  1, 89)  ( 19,  1, 89)  ( 19,  1, 89)  ( 19,  1, 89)  ( 17,  1, 87)
  0  -2814.      0  -2341.      0  -861.8      1  -749.3    
   ( 22,  1, 87)  ( 22,  1, 87)  ( 22,  1, 87)  ( 22,  1, 87)


 FLOW MODEL IS TRANSIENT
 FLOW MODEL CONTAINS CONSTANT-HEAD CELLS


 MAXIMUM STEPSIZE DURING WHICH ANY PARTICLE CANNOT MOVE MORE THAN ONE CELL
 =  13.22    (WHEN MIN. R.F.=1)  AT K=  17, I=   1, J=  90

 MAXIMUM STEPSIZE WHICH MEETS STABILITY CRITERION OF THE ADVECTION TERM
 (FOR PURE FINITE-DIFFERENCE OPTION, MIXELM=0) 
 =  8.003    (WHEN MIN. R.F.=1)  AT K=  16, I=   1, J=  90


 TOTAL NUMBER OF POINT SOURCES/SINKS PRESENT IN THE FLOW MODEL =    30

 MAXIMUM STEPSIZE WHICH MEETS STABILITY CRITERION OF THE SINK & SOURCE TERM
 =  12.17    (WHEN MIN. R.F.=1)  AT K=  17, I=   1, J=  91

 MAXIMUM STEPSIZE WHICH MEETS STABILITY CRITERION OF THE DISPERSION TERM
 =  4.365    (WHEN MIN. R.F.=1)  AT K=  17, I=   1, J=  90
     1 CALLS TO GCG PACKAGE FOR TRANSPORT TIME STEP 706 IN FLOW TIME STEP   1 STRESS PERIOD   1
     7 TOTAL ITERATIONS
     1 CALLS TO GCG PACKAGE FOR TRANSPORT TIME STEP 706 IN FLOW TIME STEP   1 STRESS PERIOD   1
     8 TOTAL ITERATIONS
 
 SOLVING FOR HEAD 


     2 CALLS TO PCG ROUTINE FOR TIME STEP   1 IN STRESS PERIOD    1
    11 TOTAL ITERATIONS

 MAXIMUM HEAD CHANGE FOR EACH ITERATION (1 INDICATES THE FIRST INNER ITERATION):

    HEAD CHANGE    HEAD CHANGE    HEAD CHANGE    HEAD CHANGE    HEAD CHANGE 
   LAYER,ROW,COL  LAYER,ROW,COL  LAYER,ROW,COL  LAYER,ROW,COL  LAYER,ROW,COL
 ---------------------------------------------------------------------------
  1  0.1348E-01  0 -0.3690E-02  0 -0.2313E-02  0 -0.8667E-02  0  0.8849E-02
   ( 15,  1, 86)  ( 17,  1, 89)  (  7,  1, 12)  (  9,  1, 51)  (  9,  1, 51)
  0 -0.1396E-02  0 -0.1191E-02  0 -0.1032E-02  0  0.1160E-02  0  0.2343E-03
   ( 11,  1, 66)  ( 11,  1, 60)  ( 11,  1, 70)  ( 11,  1, 70)  ( 11,  1, 65)
  1 -0.1342E-03
   ( 11,  1, 70)

 MAXIMUM RESIDUAL FOR EACH ITERATION (1 INDICATES THE FIRST INNER ITERATION):

    RESIDUAL       RESIDUAL       RESIDUAL       RESIDUAL       RESIDUAL    
   LAYER,ROW,COL  LAYER,ROW,COL  LAYER,ROW,COL  LAYER,ROW,COL  LAYER,ROW,COL
 ---------------------------------------------------------------------------
  1  0.1315E+06  0 -0.9205E+05  0 -0.9006E+05  0 -0.3611E+05  0  -5961.    
   ( 21,  1, 89)  ( 19,  1, 89)  ( 19,  1, 89)  ( 19,  1, 89)  ( 17,  1, 87)
  0   2908.      0   2499.      0   872.2      0   359.9      0  -267.4    
   ( 22,  1, 87)  ( 22,  1, 87)  ( 22,  1, 87)  ( 22,  1, 87)  ( 18,  1, 90)
  1  -215.6    
   ( 17,  1, 89)


 FLOW MODEL IS TRANSIENT
 FLOW MODEL CONTAINS CONSTANT-HEAD CELLS


 MAXIMUM STEPSIZE DURING WHICH ANY PARTICLE CANNOT MOVE MORE THAN ONE CELL
 =  12.87    (WHEN MIN. R.F.=1)  AT K=  17, I=   1, J=  90

 MAXIMUM STEPSIZE WHICH MEETS STABILITY CRITERION OF THE ADVECTION TERM
 (FOR PURE FINITE-DIFFERENCE OPTION, MIXELM=0) 
 =  8.037    (WHEN MIN. R.F.=1)  AT K=  16, I=   1, J=  90


 TOTAL NUMBER OF POINT SOURCES/SINKS PRESENT IN THE FLOW MODEL =    30

 MAXIMUM STEPSIZE WHICH MEETS STABILITY CRITERION OF THE SINK & SOURCE TERM
 =  12.21    (WHEN MIN. R.F.=1)  AT K=  17, I=   1, J=  91

 MAXIMUM STEPSIZE WHICH MEETS STABILITY CRITERION OF THE DISPERSION TERM
 =  4.036    (WHEN MIN. R.F.=1)  AT K=  17, I=   1, J=  90
     1 CALLS TO GCG PACKAGE FOR TRANSPORT TIME STEP 707 IN FLOW TIME STEP   1 STRESS PERIOD   1
     8 TOTAL ITERATIONS
     1 CALLS TO GCG PACKAGE FOR TRANSPORT TIME STEP 707 IN FLOW TIME STEP   1 STRESS PERIOD   1
     8 TOTAL ITERATIONS
 
 SOLVING FOR HEAD 


     2 CALLS TO PCG ROUTINE FOR TIME STEP   1 IN STRESS PERIOD    1
     9 TOTAL ITERATIONS

 MAXIMUM HEAD CHANGE FOR EACH ITERATION (1 INDICATES THE FIRST INNER ITERATION):

    HEAD CHANGE    HEAD CHANGE    HEAD CHANGE    HEAD CHANGE    HEAD CHANGE 
   LAYER,ROW,COL  LAYER,ROW,COL  LAYER,ROW,COL  LAYER,ROW,COL  LAYER,ROW,COL
 ---------------------------------------------------------------------------
  1 -0.1341E-01  0  0.3557E-02  0  0.2329E-02  0  0.6724E-02  0 -0.8991E-02
   ( 15,  1, 86)  ( 17,  1, 89)  (  8,  1, 12)  ( 11,  1, 53)  ( 11,  1, 53)
  0  0.2481E-02  0  0.1202E-02  0 -0.5031E-03  1 -0.5186E-03
   ( 11,  1, 53)  ( 11,  1, 65)  ( 11,  1, 65)  ( 11,  1, 70)

 MAXIMUM RESIDUAL FOR EACH ITERATION (1 INDICATES THE FIRST INNER ITERATION):

    RESIDUAL       RESIDUAL       RESIDUAL       RESIDUAL       RESIDUAL    
   LAYER,ROW,COL  LAYER,ROW,COL  LAYER,ROW,COL  LAYER,ROW,COL  LAYER,ROW,COL
 ---------------------------------------------------------------------------
  1 -0.1330E+06  0  0.9331E+05  0  0.9164E+05  0  0.1443E+05  0  -4145.    
   ( 21,  1, 89)  ( 19,  1, 89)  ( 19,  1, 89)  ( 19,  1, 89)  ( 18,  1, 89)
  0  -2830.      0  -2078.      0  -700.9      1  -597.6    
   ( 22,  1, 87)  ( 22,  1, 87)  ( 22,  1, 87)  ( 22,  1, 87)


 FLOW MODEL IS TRANSIENT
 FLOW MODEL CONTAINS CONSTANT-HEAD CELLS


 MAXIMUM STEPSIZE DURING WHICH ANY PARTICLE CANNOT MOVE MORE THAN ONE CELL
 =  13.21    (WHEN MIN. R.F.=1)  AT K=  17, I=   1, J=  90

 MAXIMUM STEPSIZE WHICH MEETS STABILITY CRITERION OF THE ADVECTION TERM
 (FOR PURE FINITE-DIFFERENCE OPTION, MIXELM=0) 
 =  8.005    (WHEN MIN. R.F.=1)  AT K=  16, I=   1, J=  90


 TOTAL NUMBER OF POINT SOURCES/SINKS PRESENT IN THE FLOW MODEL =    30

 MAXIMUM STEPSIZE WHICH MEETS STABILITY CRITERION OF THE SINK & SOURCE TERM
 =  12.17    (WHEN MIN. R.F.=1)  AT K=  17, I=   1, J=  91

 MAXIMUM STEPSIZE WHICH MEETS STABILITY CRITERION OF THE DISPERSION TERM
 =  4.358    (WHEN MIN. R.F.=1)  AT K=  17, I=   1, J=  90
     1 CALLS TO GCG PACKAGE FOR TRANSPORT TIME STEP 708 IN FLOW TIME STEP   1 STRESS PERIOD   1
     9 TOTAL ITERATIONS
     1 CALLS TO GCG PACKAGE FOR TRANSPORT TIME STEP 708 IN FLOW TIME STEP   1 STRESS PERIOD   1
     8 TOTAL ITERATIONS
 
 SOLVING FOR HEAD 


     2 CALLS TO PCG ROUTINE FOR TIME STEP   1 IN STRESS PERIOD    1
     8 TOTAL ITERATIONS

 MAXIMUM HEAD CHANGE FOR EACH ITERATION (1 INDICATES THE FIRST INNER ITERATION):

    HEAD CHANGE    HEAD CHANGE    HEAD CHANGE    HEAD CHANGE    HEAD CHANGE 
   LAYER,ROW,COL  LAYER,ROW,COL  LAYER,ROW,COL  LAYER,ROW,COL  LAYER,ROW,COL
 ---------------------------------------------------------------------------
  1  0.1345E-01  0 -0.3487E-02  0 -0.2490E-02  0  0.7677E-02  0  0.8143E-02
   ( 15,  1, 86)  ( 17,  1, 89)  (  7,  1, 12)  ( 11,  1, 35)  (  9,  1, 47)
  0  0.1206E-02  0 -0.7025E-03  1 -0.5698E-03
   ( 11,  1, 42)  ( 11,  1, 65)  ( 11,  1, 58)

 MAXIMUM RESIDUAL FOR EACH ITERATION (1 INDICATES THE FIRST INNER ITERATION):

    RESIDUAL       RESIDUAL       RESIDUAL       RESIDUAL       RESIDUAL    
   LAYER,ROW,COL  LAYER,ROW,COL  LAYER,ROW,COL  LAYER,ROW,COL  LAYER,ROW,COL
 ---------------------------------------------------------------------------
  1  0.1310E+06  0 -0.9095E+05  0 -0.8788E+05  0 -0.3430E+05  0  -5974.    
   ( 21,  1, 89)  ( 19,  1, 89)  ( 19,  1, 89)  ( 19,  1, 89)  ( 17,  1, 87)
  0   2930.      0   2463.      1   2079.    
   ( 22,  1, 87)  ( 22,  1, 87)  ( 22,  1, 87)


 FLOW MODEL IS TRANSIENT
 FLOW MODEL CONTAINS CONSTANT-HEAD CELLS


 MAXIMUM STEPSIZE DURING WHICH ANY PARTICLE CANNOT MOVE MORE THAN ONE CELL
 =  12.86    (WHEN MIN. R.F.=1)  AT K=  17, I=   1, J=  90

 MAXIMUM STEPSIZE WHICH MEETS STABILITY CRITERION OF THE ADVECTION TERM
 (FOR PURE FINITE-DIFFERENCE OPTION, MIXELM=0) 
 =  8.029    (WHEN MIN. R.F.=1)  AT K=  16, I=   1, J=  90


 TOTAL NUMBER OF POINT SOURCES/SINKS PRESENT IN THE FLOW MODEL =    30

 MAXIMUM STEPSIZE WHICH MEETS STABILITY CRITERION OF THE SINK & SOURCE TERM
 =  12.20    (WHEN MIN. R.F.=1)  AT K=  17, I=   1, J=  91

 MAXIMUM STEPSIZE WHICH MEETS STABILITY CRITERION OF THE DISPERSION TERM
 =  4.034    (WHEN MIN. R.F.=1)  AT K=  17, I=   1, J=  90
     1 CALLS TO GCG PACKAGE FOR TRANSPORT TIME STEP 709 IN FLOW TIME STEP   1 STRESS PERIOD   1
     8 TOTAL ITERATIONS
     1 CALLS TO GCG PACKAGE FOR TRANSPORT TIME STEP 709 IN FLOW TIME STEP   1 STRESS PERIOD   1
     8 TOTAL ITERATIONS
 
 SOLVING FOR HEAD 


     2 CALLS TO PCG ROUTINE FOR TIME STEP   1 IN STRESS PERIOD    1
     9 TOTAL ITERATIONS

 MAXIMUM HEAD CHANGE FOR EACH ITERATION (1 INDICATES THE FIRST INNER ITERATION):

    HEAD CHANGE    HEAD CHANGE    HEAD CHANGE    HEAD CHANGE    HEAD CHANGE 
   LAYER,ROW,COL  LAYER,ROW,COL  LAYER,ROW,COL  LAYER,ROW,COL  LAYER,ROW,COL
 ---------------------------------------------------------------------------
  1 -0.1372E-01  0 -0.4538E-02  0  0.3584E-02  0 -0.1334E-01  0  0.1286E-01
   ( 15,  1, 86)  ( 11,  1, 58)  (  8,  1, 12)  ( 11,  1, 49)  ( 11,  1, 49)
  0  0.2500E-02  0  0.1017E-02  0  0.8224E-03  1 -0.6430E-03
   ( 11,  1, 64)  ( 11,  1, 35)  ( 11,  1, 70)  ( 11,  1, 70)

 MAXIMUM RESIDUAL FOR EACH ITERATION (1 INDICATES THE FIRST INNER ITERATION):

    RESIDUAL       RESIDUAL       RESIDUAL       RESIDUAL       RESIDUAL    
   LAYER,ROW,COL  LAYER,ROW,COL  LAYER,ROW,COL  LAYER,ROW,COL  LAYER,ROW,COL
 ---------------------------------------------------------------------------
  1 -0.1349E+06  0  0.9595E+05  0  0.9508E+05  0  0.5262E+05  0   5273.    
   ( 21,  1, 89)  ( 19,  1, 89)  ( 19,  1, 89)  ( 19,  1, 89)  ( 17,  1, 87)
  0  -2747.      0  -2599.      0  -1635.      1  -1447.    
   ( 22,  1, 87)  ( 22,  1, 87)  ( 22,  1, 87)  ( 22,  1, 87)


 FLOW MODEL IS TRANSIENT
 FLOW MODEL CONTAINS CONSTANT-HEAD CELLS


 MAXIMUM STEPSIZE DURING WHICH ANY PARTICLE CANNOT MOVE MORE THAN ONE CELL
 =  13.15    (WHEN MIN. R.F.=1)  AT K=  17, I=   1, J=  90

 MAXIMUM STEPSIZE WHICH MEETS STABILITY CRITERION OF THE ADVECTION TERM
 (FOR PURE FINITE-DIFFERENCE OPTION, MIXELM=0) 
 =  7.975    (WHEN MIN. R.F.=1)  AT K=  16, I=   1, J=  90


 TOTAL NUMBER OF POINT SOURCES/SINKS PRESENT IN THE FLOW MODEL =    30

 MAXIMUM STEPSIZE WHICH MEETS STABILITY CRITERION OF THE SINK & SOURCE TERM
 =  12.08    (WHEN MIN. R.F.=1)  AT K=  17, I=   1, J=  91

 MAXIMUM STEPSIZE WHICH MEETS STABILITY CRITERION OF THE DISPERSION TERM
 =  4.329    (WHEN MIN. R.F.=1)  AT K=  17, I=   1, J=  90
     1 CALLS TO GCG PACKAGE FOR TRANSPORT TIME STEP 710 IN FLOW TIME STEP   1 STRESS PERIOD   1
    10 TOTAL ITERATIONS
  MAXIMUM CONCENTRATION CHANGES FOR EACH ITERATION:
  MAX. CHANGE LAYER,ROW,COL MAX. CHANGE LAYER,ROW,COL MAX. CHANGE LAYER,ROW,COL MAX. CHANGE LAYER,ROW,COL MAX. CHANGE LAYER,ROW,COL
 ------------------------------------------------------------------------------------------------------------------------------------
   0.4892E-01 ( 20,  1, 87)  0.3301E-02 ( 19,  1, 87)  0.2123E-02 ( 18,  1, 87)  0.2114E-03 ( 16,  1, 88)  0.1437E-03 ( 16,  1, 89)
   0.2690E-04 ( 16,  1, 90)  0.3463E-05 ( 21,  1, 78)  0.1063E-05 ( 15,  1, 89)  0.1220E-05 ( 16,  1, 89)  0.1181E-06 ( 17,  1, 89)
     1 CALLS TO GCG PACKAGE FOR TRANSPORT TIME STEP 710 IN FLOW TIME STEP   1 STRESS PERIOD   1
     8 TOTAL ITERATIONS
  MAXIMUM CONCENTRATION CHANGES FOR EACH ITERATION:
  MAX. CHANGE LAYER,ROW,COL MAX. CHANGE LAYER,ROW,COL MAX. CHANGE LAYER,ROW,COL MAX. CHANGE LAYER,ROW,COL MAX. CHANGE LAYER,ROW,COL
 ------------------------------------------------------------------------------------------------------------------------------------
   0.5396E-01 ( 20,  1, 87)  0.3577E-02 ( 19,  1, 87)  0.2254E-02 ( 18,  1, 87)  0.2171E-03 ( 16,  1, 88)  0.1348E-03 ( 17,  1, 89)
   0.3263E-04 ( 16,  1, 90)  0.4847E-05 ( 17,  1, 90)  0.5657E-06 ( 16,  1, 89)



 >>>>>>>>>>>>>>>>>>>>>>>>>>>>>>>>>>>>>>>>>>>>>>>>>>>>>>>FOR COMPONENT NO. 01<<<<<<<<<<<<<<<<<<<<<<<<<<<<<<<<<<<<<<<<<<<<<<<<<<<<<<<


                                            -------------------------------------------
                                                      TRANSPORT STEP NO.  710
                                            -------------------------------------------

 TOTAL ELAPSED TIME SINCE BEGINNING OF SIMULATION =   35500.00    D   
 .....................................................................

                     CUMMULATIVE MASS BUDGETS AT END OF TRANSPORT STEP  710, TIME STEP    1, STRESS PERIOD    1
                     ------------------------------------------------------------------------------------------

                                                             IN                           OUT
                                                      ----------------             ----------------
                               CONSTANT CONCENTRATION:    0.000000                    0.000000    
                                        CONSTANT HEAD:   0.1404760E+10              -0.1404549E+10
                                                WELLS:    0.000000                    0.000000    
                                             RECHARGE:    0.000000                    0.000000    
                               1ST/0TH ORDER REACTION:    0.000000                    0.000000    
                                MASS STORAGE (SOLUTE):   0.1963877E+09              -0.1965983E+09
                            ---------------------------------------------------------------------------
                                              [TOTAL]:   0.1601149E+10 KG           -0.1601149E+10 KG  

                                                          NET (IN - OUT):   -261.3554    
                                                   DISCREPANCY (PERCENT):  -0.1632299E-04



 >>>>>>>>>>>>>>>>>>>>>>>>>>>>>>>>>>>>>>>>>>>>>>>>>>>>>>>FOR COMPONENT NO. 02<<<<<<<<<<<<<<<<<<<<<<<<<<<<<<<<<<<<<<<<<<<<<<<<<<<<<<<


                                            -------------------------------------------
                                                      TRANSPORT STEP NO.  710
                                            -------------------------------------------

 TOTAL ELAPSED TIME SINCE BEGINNING OF SIMULATION =   35500.00    D   
 .....................................................................

                     CUMMULATIVE MASS BUDGETS AT END OF TRANSPORT STEP  710, TIME STEP    1, STRESS PERIOD    1
                     ------------------------------------------------------------------------------------------

                                                             IN                           OUT
                                                      ----------------             ----------------
                               CONSTANT CONCENTRATION:    0.000000                    0.000000    
                                        CONSTANT HEAD:    0.000000                  -0.2691469E+12
                                                WELLS:    0.000000                    0.000000    
                                             RECHARGE:    0.000000                    0.000000    
                               1ST/0TH ORDER REACTION:   0.5875250E+12                0.000000    
                                MASS STORAGE (SOLUTE):   0.9732658E+11              -0.4157048E+12
                            ---------------------------------------------------------------------------
                                              [TOTAL]:   0.6848529E+12 KG           -0.6848530E+12 KG  

                                                          NET (IN - OUT):   -91836.24    
                                                   DISCREPANCY (PERCENT):  -0.1340963E-04
 
 SOLVING FOR HEAD 


     2 CALLS TO PCG ROUTINE FOR TIME STEP   1 IN STRESS PERIOD    1
     8 TOTAL ITERATIONS

 MAXIMUM HEAD CHANGE FOR EACH ITERATION (1 INDICATES THE FIRST INNER ITERATION):

    HEAD CHANGE    HEAD CHANGE    HEAD CHANGE    HEAD CHANGE    HEAD CHANGE 
   LAYER,ROW,COL  LAYER,ROW,COL  LAYER,ROW,COL  LAYER,ROW,COL  LAYER,ROW,COL
 ---------------------------------------------------------------------------
  1  0.1382E-01  0 -0.4111E-02  0 -0.4119E-02  0  0.8197E-02  0 -0.7699E-02
   ( 15,  1, 86)  ( 17,  1, 89)  (  8,  1, 12)  ( 11,  1, 68)  (  6,  1, 43)
  0  0.1558E-02  0  0.9922E-03  1 -0.7858E-03
   (  7,  1, 51)  ( 11,  1, 49)  ( 11,  1, 49)

 MAXIMUM RESIDUAL FOR EACH ITERATION (1 INDICATES THE FIRST INNER ITERATION):

    RESIDUAL       RESIDUAL       RESIDUAL       RESIDUAL       RESIDUAL    
   LAYER,ROW,COL  LAYER,ROW,COL  LAYER,ROW,COL  LAYER,ROW,COL  LAYER,ROW,COL
 ---------------------------------------------------------------------------
  1  0.1335E+06  0 -0.9553E+05  0 -0.9479E+05  0 -0.2632E+05  0   5409.    
   ( 21,  1, 89)  ( 19,  1, 89)  ( 19,  1, 89)  ( 19,  1, 89)  ( 17,  1, 88)
  0   2778.      0   2514.      1   1919.    
   ( 22,  1, 87)  ( 22,  1, 87)  ( 22,  1, 87)


 FLOW MODEL IS TRANSIENT
 FLOW MODEL CONTAINS CONSTANT-HEAD CELLS


 MAXIMUM STEPSIZE DURING WHICH ANY PARTICLE CANNOT MOVE MORE THAN ONE CELL
 =  12.84    (WHEN MIN. R.F.=1)  AT K=  17, I=   1, J=  90

 MAXIMUM STEPSIZE WHICH MEETS STABILITY CRITERION OF THE ADVECTION TERM
 (FOR PURE FINITE-DIFFERENCE OPTION, MIXELM=0) 
 =  8.031    (WHEN MIN. R.F.=1)  AT K=  16, I=   1, J=  90


 TOTAL NUMBER OF POINT SOURCES/SINKS PRESENT IN THE FLOW MODEL =    30

 MAXIMUM STEPSIZE WHICH MEETS STABILITY CRITERION OF THE SINK & SOURCE TERM
 =  12.18    (WHEN MIN. R.F.=1)  AT K=  17, I=   1, J=  91

 MAXIMUM STEPSIZE WHICH MEETS STABILITY CRITERION OF THE DISPERSION TERM
 =  4.022    (WHEN MIN. R.F.=1)  AT K=  17, I=   1, J=  90
     1 CALLS TO GCG PACKAGE FOR TRANSPORT TIME STEP 711 IN FLOW TIME STEP   1 STRESS PERIOD   1
     8 TOTAL ITERATIONS
     1 CALLS TO GCG PACKAGE FOR TRANSPORT TIME STEP 711 IN FLOW TIME STEP   1 STRESS PERIOD   1
     8 TOTAL ITERATIONS
 
 SOLVING FOR HEAD 


     2 CALLS TO PCG ROUTINE FOR TIME STEP   1 IN STRESS PERIOD    1
     9 TOTAL ITERATIONS

 MAXIMUM HEAD CHANGE FOR EACH ITERATION (1 INDICATES THE FIRST INNER ITERATION):

    HEAD CHANGE    HEAD CHANGE    HEAD CHANGE    HEAD CHANGE    HEAD CHANGE 
   LAYER,ROW,COL  LAYER,ROW,COL  LAYER,ROW,COL  LAYER,ROW,COL  LAYER,ROW,COL
 ---------------------------------------------------------------------------
  1 -0.1365E-01  0 -0.9569E-02  0  0.4685E-02  0  0.1457E-01  0 -0.1035E-01
   ( 15,  1, 86)  ( 11,  1, 49)  (  8,  1, 12)  ( 11,  1, 49)  ( 11,  1, 49)
  0 -0.2604E-02  0  0.1262E-02  0  0.7170E-03  1 -0.5782E-03
   (  8,  1, 44)  ( 11,  1, 69)  ( 11,  1, 35)  ( 11,  1, 35)

 MAXIMUM RESIDUAL FOR EACH ITERATION (1 INDICATES THE FIRST INNER ITERATION):

    RESIDUAL       RESIDUAL       RESIDUAL       RESIDUAL       RESIDUAL    
   LAYER,ROW,COL  LAYER,ROW,COL  LAYER,ROW,COL  LAYER,ROW,COL  LAYER,ROW,COL
 ---------------------------------------------------------------------------
  1 -0.1315E+06  0  0.9195E+05  0  0.9137E+05  0  0.6987E+05  0   6273.    
   ( 21,  1, 89)  ( 19,  1, 89)  ( 19,  1, 89)  ( 19,  1, 89)  ( 17,  1, 87)
  0  -3178.      0  -2641.      0  -1490.      1  -1320.    
   ( 17,  1, 88)  ( 22,  1, 87)  ( 22,  1, 87)  ( 22,  1, 87)


 FLOW MODEL IS TRANSIENT
 FLOW MODEL CONTAINS CONSTANT-HEAD CELLS


 MAXIMUM STEPSIZE DURING WHICH ANY PARTICLE CANNOT MOVE MORE THAN ONE CELL
 =  13.20    (WHEN MIN. R.F.=1)  AT K=  17, I=   1, J=  90

 MAXIMUM STEPSIZE WHICH MEETS STABILITY CRITERION OF THE ADVECTION TERM
 (FOR PURE FINITE-DIFFERENCE OPTION, MIXELM=0) 
 =  7.991    (WHEN MIN. R.F.=1)  AT K=  16, I=   1, J=  90


 TOTAL NUMBER OF POINT SOURCES/SINKS PRESENT IN THE FLOW MODEL =    30

 MAXIMUM STEPSIZE WHICH MEETS STABILITY CRITERION OF THE SINK & SOURCE TERM
 =  12.13    (WHEN MIN. R.F.=1)  AT K=  17, I=   1, J=  91

 MAXIMUM STEPSIZE WHICH MEETS STABILITY CRITERION OF THE DISPERSION TERM
 =  4.361    (WHEN MIN. R.F.=1)  AT K=  17, I=   1, J=  90
     1 CALLS TO GCG PACKAGE FOR TRANSPORT TIME STEP 712 IN FLOW TIME STEP   1 STRESS PERIOD   1
    10 TOTAL ITERATIONS
     1 CALLS TO GCG PACKAGE FOR TRANSPORT TIME STEP 712 IN FLOW TIME STEP   1 STRESS PERIOD   1
     8 TOTAL ITERATIONS
 
 SOLVING FOR HEAD 


     2 CALLS TO PCG ROUTINE FOR TIME STEP   1 IN STRESS PERIOD    1
     8 TOTAL ITERATIONS

 MAXIMUM HEAD CHANGE FOR EACH ITERATION (1 INDICATES THE FIRST INNER ITERATION):

    HEAD CHANGE    HEAD CHANGE    HEAD CHANGE    HEAD CHANGE    HEAD CHANGE 
   LAYER,ROW,COL  LAYER,ROW,COL  LAYER,ROW,COL  LAYER,ROW,COL  LAYER,ROW,COL
 ---------------------------------------------------------------------------
  1  0.1358E-01  0 -0.4164E-02  0 -0.3307E-02  0  0.8453E-02  0 -0.8566E-02
   ( 15,  1, 86)  ( 17,  1, 89)  (  8,  1, 12)  ( 11,  1, 35)  ( 11,  1, 35)
  0  0.1383E-02  0 -0.6931E-03  1 -0.5104E-03
   ( 11,  1, 41)  ( 11,  1, 52)  ( 11,  1, 67)

 MAXIMUM RESIDUAL FOR EACH ITERATION (1 INDICATES THE FIRST INNER ITERATION):

    RESIDUAL       RESIDUAL       RESIDUAL       RESIDUAL       RESIDUAL    
   LAYER,ROW,COL  LAYER,ROW,COL  LAYER,ROW,COL  LAYER,ROW,COL  LAYER,ROW,COL
 ---------------------------------------------------------------------------
  1  0.1347E+06  0 -0.9600E+05  0 -0.9508E+05  0 -0.2601E+05  0   5504.    
   ( 21,  1, 89)  ( 19,  1, 89)  ( 19,  1, 89)  ( 19,  1, 89)  ( 17,  1, 88)
  0   2735.      0   2469.      1   1964.    
   ( 22,  1, 87)  ( 22,  1, 87)  ( 22,  1, 87)


 FLOW MODEL IS TRANSIENT
 FLOW MODEL CONTAINS CONSTANT-HEAD CELLS


 MAXIMUM STEPSIZE DURING WHICH ANY PARTICLE CANNOT MOVE MORE THAN ONE CELL
 =  12.85    (WHEN MIN. R.F.=1)  AT K=  17, I=   1, J=  90

 MAXIMUM STEPSIZE WHICH MEETS STABILITY CRITERION OF THE ADVECTION TERM
 (FOR PURE FINITE-DIFFERENCE OPTION, MIXELM=0) 
 =  8.035    (WHEN MIN. R.F.=1)  AT K=  16, I=   1, J=  90


 TOTAL NUMBER OF POINT SOURCES/SINKS PRESENT IN THE FLOW MODEL =    30

 MAXIMUM STEPSIZE WHICH MEETS STABILITY CRITERION OF THE SINK & SOURCE TERM
 =  12.21    (WHEN MIN. R.F.=1)  AT K=  17, I=   1, J=  91

 MAXIMUM STEPSIZE WHICH MEETS STABILITY CRITERION OF THE DISPERSION TERM
 =  4.024    (WHEN MIN. R.F.=1)  AT K=  17, I=   1, J=  90
     1 CALLS TO GCG PACKAGE FOR TRANSPORT TIME STEP 713 IN FLOW TIME STEP   1 STRESS PERIOD   1
     8 TOTAL ITERATIONS
     1 CALLS TO GCG PACKAGE FOR TRANSPORT TIME STEP 713 IN FLOW TIME STEP   1 STRESS PERIOD   1
     8 TOTAL ITERATIONS
 
 SOLVING FOR HEAD 


     2 CALLS TO PCG ROUTINE FOR TIME STEP   1 IN STRESS PERIOD    1
     9 TOTAL ITERATIONS

 MAXIMUM HEAD CHANGE FOR EACH ITERATION (1 INDICATES THE FIRST INNER ITERATION):

    HEAD CHANGE    HEAD CHANGE    HEAD CHANGE    HEAD CHANGE    HEAD CHANGE 
   LAYER,ROW,COL  LAYER,ROW,COL  LAYER,ROW,COL  LAYER,ROW,COL  LAYER,ROW,COL
 ---------------------------------------------------------------------------
  1 -0.1375E-01  0  0.7849E-02  0  0.4977E-02  0 -0.1036E-01  0 -0.6485E-02
   ( 15,  1, 86)  ( 11,  1, 50)  (  8,  1, 12)  ( 11,  1, 50)  ( 11,  1, 67)
  0 -0.3843E-02  0  0.1102E-02  0  0.5252E-03  1 -0.3757E-03
   ( 11,  1, 35)  ( 11,  1, 36)  ( 11,  1, 53)  ( 11,  1, 54)

 MAXIMUM RESIDUAL FOR EACH ITERATION (1 INDICATES THE FIRST INNER ITERATION):

    RESIDUAL       RESIDUAL       RESIDUAL       RESIDUAL       RESIDUAL    
   LAYER,ROW,COL  LAYER,ROW,COL  LAYER,ROW,COL  LAYER,ROW,COL  LAYER,ROW,COL
 ---------------------------------------------------------------------------
  1 -0.1339E+06  0  0.9397E+05  0  0.9342E+05  0  0.7655E+05  0   6462.    
   ( 21,  1, 89)  ( 19,  1, 89)  ( 19,  1, 89)  ( 19,  1, 89)  ( 17,  1, 87)
  0  -3130.      0  -2593.      0  -1599.      1  -1412.    
   ( 17,  1, 88)  ( 22,  1, 87)  ( 22,  1, 87)  ( 22,  1, 87)


 FLOW MODEL IS TRANSIENT
 FLOW MODEL CONTAINS CONSTANT-HEAD CELLS


 MAXIMUM STEPSIZE DURING WHICH ANY PARTICLE CANNOT MOVE MORE THAN ONE CELL
 =  13.19    (WHEN MIN. R.F.=1)  AT K=  17, I=   1, J=  90

 MAXIMUM STEPSIZE WHICH MEETS STABILITY CRITERION OF THE ADVECTION TERM
 (FOR PURE FINITE-DIFFERENCE OPTION, MIXELM=0) 
 =  7.989    (WHEN MIN. R.F.=1)  AT K=  16, I=   1, J=  90


 TOTAL NUMBER OF POINT SOURCES/SINKS PRESENT IN THE FLOW MODEL =    30

 MAXIMUM STEPSIZE WHICH MEETS STABILITY CRITERION OF THE SINK & SOURCE TERM
 =  12.13    (WHEN MIN. R.F.=1)  AT K=  17, I=   1, J=  91

 MAXIMUM STEPSIZE WHICH MEETS STABILITY CRITERION OF THE DISPERSION TERM
 =  4.362    (WHEN MIN. R.F.=1)  AT K=  17, I=   1, J=  90
     1 CALLS TO GCG PACKAGE FOR TRANSPORT TIME STEP 714 IN FLOW TIME STEP   1 STRESS PERIOD   1
    10 TOTAL ITERATIONS
     1 CALLS TO GCG PACKAGE FOR TRANSPORT TIME STEP 714 IN FLOW TIME STEP   1 STRESS PERIOD   1
     8 TOTAL ITERATIONS
 
 SOLVING FOR HEAD 


     2 CALLS TO PCG ROUTINE FOR TIME STEP   1 IN STRESS PERIOD    1
     8 TOTAL ITERATIONS

 MAXIMUM HEAD CHANGE FOR EACH ITERATION (1 INDICATES THE FIRST INNER ITERATION):

    HEAD CHANGE    HEAD CHANGE    HEAD CHANGE    HEAD CHANGE    HEAD CHANGE 
   LAYER,ROW,COL  LAYER,ROW,COL  LAYER,ROW,COL  LAYER,ROW,COL  LAYER,ROW,COL
 ---------------------------------------------------------------------------
  1  0.1365E-01  0 -0.4247E-02  0 -0.3430E-02  0  0.9718E-02  0 -0.1017E-01
   ( 15,  1, 86)  ( 17,  1, 89)  (  8,  1, 12)  ( 11,  1, 54)  ( 11,  1, 54)
  0  0.1692E-02  0  0.8899E-03  1 -0.7010E-03
   ( 11,  1, 54)  ( 11,  1, 35)  ( 11,  1, 36)

 MAXIMUM RESIDUAL FOR EACH ITERATION (1 INDICATES THE FIRST INNER ITERATION):

    RESIDUAL       RESIDUAL       RESIDUAL       RESIDUAL       RESIDUAL    
   LAYER,ROW,COL  LAYER,ROW,COL  LAYER,ROW,COL  LAYER,ROW,COL  LAYER,ROW,COL
 ---------------------------------------------------------------------------
  1  0.1353E+06  0 -0.9629E+05  0 -0.9539E+05  0 -0.2306E+05  0   5280.    
   ( 21,  1, 89)  ( 19,  1, 89)  ( 19,  1, 89)  ( 19,  1, 89)  ( 17,  1, 88)
  0   2740.      0   2416.      1   1973.    
   ( 22,  1, 87)  ( 22,  1, 87)  ( 22,  1, 87)


 FLOW MODEL IS TRANSIENT
 FLOW MODEL CONTAINS CONSTANT-HEAD CELLS


 MAXIMUM STEPSIZE DURING WHICH ANY PARTICLE CANNOT MOVE MORE THAN ONE CELL
 =  12.85    (WHEN MIN. R.F.=1)  AT K=  17, I=   1, J=  90

 MAXIMUM STEPSIZE WHICH MEETS STABILITY CRITERION OF THE ADVECTION TERM
 (FOR PURE FINITE-DIFFERENCE OPTION, MIXELM=0) 
 =  8.036    (WHEN MIN. R.F.=1)  AT K=  16, I=   1, J=  90


 TOTAL NUMBER OF POINT SOURCES/SINKS PRESENT IN THE FLOW MODEL =    30

 MAXIMUM STEPSIZE WHICH MEETS STABILITY CRITERION OF THE SINK & SOURCE TERM
 =  12.21    (WHEN MIN. R.F.=1)  AT K=  17, I=   1, J=  91

 MAXIMUM STEPSIZE WHICH MEETS STABILITY CRITERION OF THE DISPERSION TERM
 =  4.024    (WHEN MIN. R.F.=1)  AT K=  17, I=   1, J=  90
     1 CALLS TO GCG PACKAGE FOR TRANSPORT TIME STEP 715 IN FLOW TIME STEP   1 STRESS PERIOD   1
     8 TOTAL ITERATIONS
  MAXIMUM CONCENTRATION CHANGES FOR EACH ITERATION:
  MAX. CHANGE LAYER,ROW,COL MAX. CHANGE LAYER,ROW,COL MAX. CHANGE LAYER,ROW,COL MAX. CHANGE LAYER,ROW,COL MAX. CHANGE LAYER,ROW,COL
 ------------------------------------------------------------------------------------------------------------------------------------
   0.5199E-01 ( 20,  1, 87)  0.4295E-02 ( 19,  1, 89)  0.2077E-02 ( 17,  1, 86)  0.4851E-03 ( 20,  1, 89)  0.9329E-04 ( 16,  1, 89)
   0.2143E-04 ( 20,  1, 89)  0.2221E-04 ( 16,  1, 90)  0.6191E-06 ( 17,  1, 90)
     1 CALLS TO GCG PACKAGE FOR TRANSPORT TIME STEP 715 IN FLOW TIME STEP   1 STRESS PERIOD   1
     8 TOTAL ITERATIONS
  MAXIMUM CONCENTRATION CHANGES FOR EACH ITERATION:
  MAX. CHANGE LAYER,ROW,COL MAX. CHANGE LAYER,ROW,COL MAX. CHANGE LAYER,ROW,COL MAX. CHANGE LAYER,ROW,COL MAX. CHANGE LAYER,ROW,COL
 ------------------------------------------------------------------------------------------------------------------------------------
   0.5773E-01 ( 20,  1, 87)  0.4845E-02 ( 19,  1, 89)  0.2057E-02 ( 18,  1, 86)  0.4361E-03 ( 20,  1, 89)  0.1068E-03 ( 16,  1, 89)
   0.1837E-04 ( 23,  1, 87)  0.1916E-04 ( 16,  1, 90)  0.8207E-06 ( 17,  1, 90)
 
 SOLVING FOR HEAD 


     2 CALLS TO PCG ROUTINE FOR TIME STEP   1 IN STRESS PERIOD    1
     9 TOTAL ITERATIONS

 MAXIMUM HEAD CHANGE FOR EACH ITERATION (1 INDICATES THE FIRST INNER ITERATION):

    HEAD CHANGE    HEAD CHANGE    HEAD CHANGE    HEAD CHANGE    HEAD CHANGE 
   LAYER,ROW,COL  LAYER,ROW,COL  LAYER,ROW,COL  LAYER,ROW,COL  LAYER,ROW,COL
 ---------------------------------------------------------------------------
  1 -0.1375E-01  0 -0.7026E-02  0  0.5525E-02  0  0.1179E-01  0  0.7520E-02
   ( 15,  1, 86)  ( 11,  1, 36)  (  8,  1, 12)  ( 11,  1, 36)  (  7,  1, 45)
  0  0.2790E-02  0  0.1162E-02  0  0.9154E-03  1 -0.7324E-03
   ( 11,  1, 45)  ( 11,  1, 70)  ( 11,  1, 49)  ( 11,  1, 49)

 MAXIMUM RESIDUAL FOR EACH ITERATION (1 INDICATES THE FIRST INNER ITERATION):

    RESIDUAL       RESIDUAL       RESIDUAL       RESIDUAL       RESIDUAL    
   LAYER,ROW,COL  LAYER,ROW,COL  LAYER,ROW,COL  LAYER,ROW,COL  LAYER,ROW,COL
 ---------------------------------------------------------------------------
  1 -0.1348E+06  0  0.9494E+05  0  0.9449E+05  0  0.7023E+05  0   6682.    
   ( 21,  1, 89)  ( 19,  1, 89)  ( 19,  1, 89)  ( 19,  1, 89)  ( 17,  1, 87)
  0  -3181.      0  -2557.      0  -1063.      1  -948.4    
   ( 17,  1, 88)  ( 22,  1, 87)  ( 22,  1, 87)  ( 22,  1, 87)


 FLOW MODEL IS TRANSIENT
 FLOW MODEL CONTAINS CONSTANT-HEAD CELLS


 MAXIMUM STEPSIZE DURING WHICH ANY PARTICLE CANNOT MOVE MORE THAN ONE CELL
 =  13.20    (WHEN MIN. R.F.=1)  AT K=  17, I=   1, J=  90

 MAXIMUM STEPSIZE WHICH MEETS STABILITY CRITERION OF THE ADVECTION TERM
 (FOR PURE FINITE-DIFFERENCE OPTION, MIXELM=0) 
 =  7.989    (WHEN MIN. R.F.=1)  AT K=  16, I=   1, J=  90


 TOTAL NUMBER OF POINT SOURCES/SINKS PRESENT IN THE FLOW MODEL =    30

 MAXIMUM STEPSIZE WHICH MEETS STABILITY CRITERION OF THE SINK & SOURCE TERM
 =  12.14    (WHEN MIN. R.F.=1)  AT K=  17, I=   1, J=  91

 MAXIMUM STEPSIZE WHICH MEETS STABILITY CRITERION OF THE DISPERSION TERM
 =  4.368    (WHEN MIN. R.F.=1)  AT K=  17, I=   1, J=  90
     1 CALLS TO GCG PACKAGE FOR TRANSPORT TIME STEP 716 IN FLOW TIME STEP   1 STRESS PERIOD   1
    10 TOTAL ITERATIONS
     1 CALLS TO GCG PACKAGE FOR TRANSPORT TIME STEP 716 IN FLOW TIME STEP   1 STRESS PERIOD   1
     8 TOTAL ITERATIONS
 
 SOLVING FOR HEAD 


     2 CALLS TO PCG ROUTINE FOR TIME STEP   1 IN STRESS PERIOD    1
     8 TOTAL ITERATIONS

 MAXIMUM HEAD CHANGE FOR EACH ITERATION (1 INDICATES THE FIRST INNER ITERATION):

    HEAD CHANGE    HEAD CHANGE    HEAD CHANGE    HEAD CHANGE    HEAD CHANGE 
   LAYER,ROW,COL  LAYER,ROW,COL  LAYER,ROW,COL  LAYER,ROW,COL  LAYER,ROW,COL
 ---------------------------------------------------------------------------
  1  0.1353E-01  0 -0.4143E-02  0 -0.2876E-02  0  0.1080E-01  0 -0.1137E-01
   ( 15,  1, 86)  ( 17,  1, 89)  (  8,  1, 12)  ( 11,  1, 50)  ( 11,  1, 50)
  0  0.1998E-02  0 -0.6360E-03  1 -0.4986E-03
   ( 11,  1, 52)  ( 11,  1, 40)  (  7,  1, 44)

 MAXIMUM RESIDUAL FOR EACH ITERATION (1 INDICATES THE FIRST INNER ITERATION):

    RESIDUAL       RESIDUAL       RESIDUAL       RESIDUAL       RESIDUAL    
   LAYER,ROW,COL  LAYER,ROW,COL  LAYER,ROW,COL  LAYER,ROW,COL  LAYER,ROW,COL
 ---------------------------------------------------------------------------
  1  0.1355E+06  0 -0.9602E+05  0 -0.9495E+05  0 -0.2225E+05  0   5320.    
   ( 21,  1, 89)  ( 19,  1, 89)  ( 19,  1, 89)  ( 19,  1, 89)  ( 17,  1, 88)
  0   2772.      0   2308.      1   2024.    
   ( 22,  1, 87)  ( 22,  1, 87)  ( 22,  1, 87)


 FLOW MODEL IS TRANSIENT
 FLOW MODEL CONTAINS CONSTANT-HEAD CELLS


 MAXIMUM STEPSIZE DURING WHICH ANY PARTICLE CANNOT MOVE MORE THAN ONE CELL
 =  12.83    (WHEN MIN. R.F.=1)  AT K=  17, I=   1, J=  90

 MAXIMUM STEPSIZE WHICH MEETS STABILITY CRITERION OF THE ADVECTION TERM
 (FOR PURE FINITE-DIFFERENCE OPTION, MIXELM=0) 
 =  8.028    (WHEN MIN. R.F.=1)  AT K=  16, I=   1, J=  90


 TOTAL NUMBER OF POINT SOURCES/SINKS PRESENT IN THE FLOW MODEL =    30

 MAXIMUM STEPSIZE WHICH MEETS STABILITY CRITERION OF THE SINK & SOURCE TERM
 =  12.19    (WHEN MIN. R.F.=1)  AT K=  17, I=   1, J=  91

 MAXIMUM STEPSIZE WHICH MEETS STABILITY CRITERION OF THE DISPERSION TERM
 =  4.019    (WHEN MIN. R.F.=1)  AT K=  17, I=   1, J=  90
     1 CALLS TO GCG PACKAGE FOR TRANSPORT TIME STEP 717 IN FLOW TIME STEP   1 STRESS PERIOD   1
     8 TOTAL ITERATIONS
     1 CALLS TO GCG PACKAGE FOR TRANSPORT TIME STEP 717 IN FLOW TIME STEP   1 STRESS PERIOD   1
     8 TOTAL ITERATIONS
 
 SOLVING FOR HEAD 


     2 CALLS TO PCG ROUTINE FOR TIME STEP   1 IN STRESS PERIOD    1
     9 TOTAL ITERATIONS

 MAXIMUM HEAD CHANGE FOR EACH ITERATION (1 INDICATES THE FIRST INNER ITERATION):

    HEAD CHANGE    HEAD CHANGE    HEAD CHANGE    HEAD CHANGE    HEAD CHANGE 
   LAYER,ROW,COL  LAYER,ROW,COL  LAYER,ROW,COL  LAYER,ROW,COL  LAYER,ROW,COL
 ---------------------------------------------------------------------------
  1 -0.1373E-01  0 -0.6014E-02  0  0.4697E-02  0  0.9889E-02  0 -0.7866E-02
   ( 15,  1, 86)  (  7,  1, 43)  (  8,  1, 12)  (  8,  1, 45)  (  8,  1, 46)
  0 -0.3260E-02  0  0.1784E-02  0  0.5329E-03  1  0.4657E-03
   ( 11,  1, 49)  ( 11,  1, 49)  ( 11,  1, 62)  ( 11,  1, 54)

 MAXIMUM RESIDUAL FOR EACH ITERATION (1 INDICATES THE FIRST INNER ITERATION):

    RESIDUAL       RESIDUAL       RESIDUAL       RESIDUAL       RESIDUAL    
   LAYER,ROW,COL  LAYER,ROW,COL  LAYER,ROW,COL  LAYER,ROW,COL  LAYER,ROW,COL
 ---------------------------------------------------------------------------
  1 -0.1350E+06  0  0.9543E+05  0  0.9480E+05  0  0.6712E+05  0   6136.    
   ( 21,  1, 89)  ( 19,  1, 89)  ( 19,  1, 89)  ( 19,  1, 89)  ( 17,  1, 87)
  0  -2737.      0  -2520.      0  -934.6      1  -827.5    
   ( 22,  1, 87)  ( 22,  1, 87)  ( 22,  1, 87)  ( 22,  1, 87)


 FLOW MODEL IS TRANSIENT
 FLOW MODEL CONTAINS CONSTANT-HEAD CELLS


 MAXIMUM STEPSIZE DURING WHICH ANY PARTICLE CANNOT MOVE MORE THAN ONE CELL
 =  13.18    (WHEN MIN. R.F.=1)  AT K=  17, I=   1, J=  90

 MAXIMUM STEPSIZE WHICH MEETS STABILITY CRITERION OF THE ADVECTION TERM
 (FOR PURE FINITE-DIFFERENCE OPTION, MIXELM=0) 
 =  7.982    (WHEN MIN. R.F.=1)  AT K=  16, I=   1, J=  90


 TOTAL NUMBER OF POINT SOURCES/SINKS PRESENT IN THE FLOW MODEL =    30

 MAXIMUM STEPSIZE WHICH MEETS STABILITY CRITERION OF THE SINK & SOURCE TERM
 =  12.11    (WHEN MIN. R.F.=1)  AT K=  17, I=   1, J=  91

 MAXIMUM STEPSIZE WHICH MEETS STABILITY CRITERION OF THE DISPERSION TERM
 =  4.360    (WHEN MIN. R.F.=1)  AT K=  17, I=   1, J=  90
     1 CALLS TO GCG PACKAGE FOR TRANSPORT TIME STEP 718 IN FLOW TIME STEP   1 STRESS PERIOD   1
    10 TOTAL ITERATIONS
     1 CALLS TO GCG PACKAGE FOR TRANSPORT TIME STEP 718 IN FLOW TIME STEP   1 STRESS PERIOD   1
     8 TOTAL ITERATIONS
 
 SOLVING FOR HEAD 


     2 CALLS TO PCG ROUTINE FOR TIME STEP   1 IN STRESS PERIOD    1
     9 TOTAL ITERATIONS

 MAXIMUM HEAD CHANGE FOR EACH ITERATION (1 INDICATES THE FIRST INNER ITERATION):

    HEAD CHANGE    HEAD CHANGE    HEAD CHANGE    HEAD CHANGE    HEAD CHANGE 
   LAYER,ROW,COL  LAYER,ROW,COL  LAYER,ROW,COL  LAYER,ROW,COL  LAYER,ROW,COL
 ---------------------------------------------------------------------------
  1  0.1359E-01  0 -0.4124E-02  0 -0.2758E-02  0 -0.9830E-02  0  0.1103E-01
   ( 15,  1, 86)  ( 17,  1, 89)  (  8,  1, 12)  ( 11,  1, 54)  ( 11,  1, 54)
  0 -0.2008E-02  0 -0.1087E-02  0 -0.8171E-03  1  0.3979E-03
   ( 11,  1, 51)  ( 11,  1, 70)  ( 11,  1, 61)  ( 11,  1, 60)

 MAXIMUM RESIDUAL FOR EACH ITERATION (1 INDICATES THE FIRST INNER ITERATION):

    RESIDUAL       RESIDUAL       RESIDUAL       RESIDUAL       RESIDUAL    
   LAYER,ROW,COL  LAYER,ROW,COL  LAYER,ROW,COL  LAYER,ROW,COL  LAYER,ROW,COL
 ---------------------------------------------------------------------------
  1  0.1347E+06  0 -0.9519E+05  0 -0.9409E+05  0 -0.2296E+05  0   5219.    
   ( 21,  1, 89)  ( 19,  1, 89)  ( 19,  1, 89)  ( 19,  1, 89)  ( 17,  1, 88)
  0   2778.      0   2267.      0   699.1      1   590.1    
   ( 22,  1, 87)  ( 22,  1, 87)  ( 22,  1, 87)  ( 22,  1, 87)


 FLOW MODEL IS TRANSIENT
 FLOW MODEL CONTAINS CONSTANT-HEAD CELLS


 MAXIMUM STEPSIZE DURING WHICH ANY PARTICLE CANNOT MOVE MORE THAN ONE CELL
 =  12.84    (WHEN MIN. R.F.=1)  AT K=  17, I=   1, J=  90

 MAXIMUM STEPSIZE WHICH MEETS STABILITY CRITERION OF THE ADVECTION TERM
 (FOR PURE FINITE-DIFFERENCE OPTION, MIXELM=0) 
 =  8.030    (WHEN MIN. R.F.=1)  AT K=  16, I=   1, J=  90


 TOTAL NUMBER OF POINT SOURCES/SINKS PRESENT IN THE FLOW MODEL =    30

 MAXIMUM STEPSIZE WHICH MEETS STABILITY CRITERION OF THE SINK & SOURCE TERM
 =  12.19    (WHEN MIN. R.F.=1)  AT K=  17, I=   1, J=  91

 MAXIMUM STEPSIZE WHICH MEETS STABILITY CRITERION OF THE DISPERSION TERM
 =  4.023    (WHEN MIN. R.F.=1)  AT K=  17, I=   1, J=  90
     1 CALLS TO GCG PACKAGE FOR TRANSPORT TIME STEP 719 IN FLOW TIME STEP   1 STRESS PERIOD   1
     8 TOTAL ITERATIONS
     1 CALLS TO GCG PACKAGE FOR TRANSPORT TIME STEP 719 IN FLOW TIME STEP   1 STRESS PERIOD   1
     8 TOTAL ITERATIONS
 
 SOLVING FOR HEAD 


     2 CALLS TO PCG ROUTINE FOR TIME STEP   1 IN STRESS PERIOD    1
     9 TOTAL ITERATIONS

 MAXIMUM HEAD CHANGE FOR EACH ITERATION (1 INDICATES THE FIRST INNER ITERATION):

    HEAD CHANGE    HEAD CHANGE    HEAD CHANGE    HEAD CHANGE    HEAD CHANGE 
   LAYER,ROW,COL  LAYER,ROW,COL  LAYER,ROW,COL  LAYER,ROW,COL  LAYER,ROW,COL
 ---------------------------------------------------------------------------
  1 -0.1334E-01  0  0.3714E-02  0  0.2408E-02  0  0.1029E-01  0 -0.1003E-01
   ( 15,  1, 86)  ( 17,  1, 89)  (  7,  1, 12)  ( 11,  1, 68)  ( 11,  1, 68)
  0  0.1604E-02  0 -0.1033E-02  0  0.8841E-03  1 -0.6974E-03
   ( 11,  1, 63)  ( 11,  1, 61)  ( 11,  1, 59)  ( 11,  1, 70)

 MAXIMUM RESIDUAL FOR EACH ITERATION (1 INDICATES THE FIRST INNER ITERATION):

    RESIDUAL       RESIDUAL       RESIDUAL       RESIDUAL       RESIDUAL    
   LAYER,ROW,COL  LAYER,ROW,COL  LAYER,ROW,COL  LAYER,ROW,COL  LAYER,ROW,COL
 ---------------------------------------------------------------------------
  1 -0.1321E+06  0  0.9322E+05  0  0.9186E+05  0  0.3243E+05  0   6091.    
   ( 21,  1, 89)  ( 19,  1, 89)  ( 19,  1, 89)  ( 19,  1, 89)  ( 17,  1, 87)
  0  -2795.      0  -2534.      0  -828.4      1  -689.8    
   ( 22,  1, 87)  ( 22,  1, 87)  ( 22,  1, 87)  ( 22,  1, 87)


 FLOW MODEL IS TRANSIENT
 FLOW MODEL CONTAINS CONSTANT-HEAD CELLS


 MAXIMUM STEPSIZE DURING WHICH ANY PARTICLE CANNOT MOVE MORE THAN ONE CELL
 =  13.23    (WHEN MIN. R.F.=1)  AT K=  17, I=   1, J=  90

 MAXIMUM STEPSIZE WHICH MEETS STABILITY CRITERION OF THE ADVECTION TERM
 (FOR PURE FINITE-DIFFERENCE OPTION, MIXELM=0) 
 =  8.005    (WHEN MIN. R.F.=1)  AT K=  16, I=   1, J=  90


 TOTAL NUMBER OF POINT SOURCES/SINKS PRESENT IN THE FLOW MODEL =    30

 MAXIMUM STEPSIZE WHICH MEETS STABILITY CRITERION OF THE SINK & SOURCE TERM
 =  12.18    (WHEN MIN. R.F.=1)  AT K=  17, I=   1, J=  91

 MAXIMUM STEPSIZE WHICH MEETS STABILITY CRITERION OF THE DISPERSION TERM
 =  4.376    (WHEN MIN. R.F.=1)  AT K=  17, I=   1, J=  90
     1 CALLS TO GCG PACKAGE FOR TRANSPORT TIME STEP 720 IN FLOW TIME STEP   1 STRESS PERIOD   1
     9 TOTAL ITERATIONS
  MAXIMUM CONCENTRATION CHANGES FOR EACH ITERATION:
  MAX. CHANGE LAYER,ROW,COL MAX. CHANGE LAYER,ROW,COL MAX. CHANGE LAYER,ROW,COL MAX. CHANGE LAYER,ROW,COL MAX. CHANGE LAYER,ROW,COL
 ------------------------------------------------------------------------------------------------------------------------------------
   0.4923E-01 ( 20,  1, 87)  0.3354E-02 ( 19,  1, 87)  0.2256E-02 ( 18,  1, 87)  0.2198E-03 ( 16,  1, 88)  0.1415E-03 ( 16,  1, 89)
   0.3089E-04 ( 16,  1, 90)  0.1383E-05 ( 21,  1, 78)  0.5494E-05 ( 21,  1, 78)  0.9505E-06 ( 16,  1, 89)
     1 CALLS TO GCG PACKAGE FOR TRANSPORT TIME STEP 720 IN FLOW TIME STEP   1 STRESS PERIOD   1
     8 TOTAL ITERATIONS
  MAXIMUM CONCENTRATION CHANGES FOR EACH ITERATION:
  MAX. CHANGE LAYER,ROW,COL MAX. CHANGE LAYER,ROW,COL MAX. CHANGE LAYER,ROW,COL MAX. CHANGE LAYER,ROW,COL MAX. CHANGE LAYER,ROW,COL
 ------------------------------------------------------------------------------------------------------------------------------------
   0.5330E-01 ( 20,  1, 87)  0.3622E-02 ( 19,  1, 87)  0.2347E-02 ( 18,  1, 87)  0.2212E-03 ( 16,  1, 88)  0.1340E-03 ( 16,  1, 89)
   0.3545E-04 ( 16,  1, 90)  0.4916E-05 ( 17,  1, 90)  0.5335E-06 ( 16,  1, 89)



 >>>>>>>>>>>>>>>>>>>>>>>>>>>>>>>>>>>>>>>>>>>>>>>>>>>>>>>FOR COMPONENT NO. 01<<<<<<<<<<<<<<<<<<<<<<<<<<<<<<<<<<<<<<<<<<<<<<<<<<<<<<<


                                            -------------------------------------------
                                                      TRANSPORT STEP NO.  720
                                            -------------------------------------------

 TOTAL ELAPSED TIME SINCE BEGINNING OF SIMULATION =   36000.00    D   
 .....................................................................

                     CUMMULATIVE MASS BUDGETS AT END OF TRANSPORT STEP  720, TIME STEP    1, STRESS PERIOD    1
                     ------------------------------------------------------------------------------------------

                                                             IN                           OUT
                                                      ----------------             ----------------
                               CONSTANT CONCENTRATION:    0.000000                    0.000000    
                                        CONSTANT HEAD:   0.1424554E+10              -0.1424345E+10
                                                WELLS:    0.000000                    0.000000    
                                             RECHARGE:    0.000000                    0.000000    
                               1ST/0TH ORDER REACTION:    0.000000                    0.000000    
                                MASS STORAGE (SOLUTE):   0.1991576E+09              -0.1993664E+09
                            ---------------------------------------------------------------------------
                                              [TOTAL]:   0.1623713E+10 KG           -0.1623713E+10 KG  

                                                          NET (IN - OUT):   -254.3207    
                                                   DISCREPANCY (PERCENT):  -0.1566291E-04



 >>>>>>>>>>>>>>>>>>>>>>>>>>>>>>>>>>>>>>>>>>>>>>>>>>>>>>>FOR COMPONENT NO. 02<<<<<<<<<<<<<<<<<<<<<<<<<<<<<<<<<<<<<<<<<<<<<<<<<<<<<<<


                                            -------------------------------------------
                                                      TRANSPORT STEP NO.  720
                                            -------------------------------------------

 TOTAL ELAPSED TIME SINCE BEGINNING OF SIMULATION =   36000.00    D   
 .....................................................................

                     CUMMULATIVE MASS BUDGETS AT END OF TRANSPORT STEP  720, TIME STEP    1, STRESS PERIOD    1
                     ------------------------------------------------------------------------------------------

                                                             IN                           OUT
                                                      ----------------             ----------------
                               CONSTANT CONCENTRATION:    0.000000                    0.000000    
                                        CONSTANT HEAD:    0.000000                  -0.2754158E+12
                                                WELLS:    0.000000                    0.000000    
                                             RECHARGE:    0.000000                    0.000000    
                               1ST/0TH ORDER REACTION:   0.5958000E+12                0.000000    
                                MASS STORAGE (SOLUTE):   0.1001089E+12              -0.4204932E+12
                            ---------------------------------------------------------------------------
                                              [TOTAL]:   0.6959103E+12 KG           -0.6959104E+12 KG  

                                                          NET (IN - OUT):   -94056.38    
                                                   DISCREPANCY (PERCENT):  -0.1351559E-04
 
 SOLVING FOR HEAD 


     2 CALLS TO PCG ROUTINE FOR TIME STEP   1 IN STRESS PERIOD    1
     9 TOTAL ITERATIONS

 MAXIMUM HEAD CHANGE FOR EACH ITERATION (1 INDICATES THE FIRST INNER ITERATION):

    HEAD CHANGE    HEAD CHANGE    HEAD CHANGE    HEAD CHANGE    HEAD CHANGE 
   LAYER,ROW,COL  LAYER,ROW,COL  LAYER,ROW,COL  LAYER,ROW,COL  LAYER,ROW,COL
 ---------------------------------------------------------------------------
  1  0.1346E-01  0 -0.3703E-02  0 -0.2325E-02  0  0.1293E-01  0 -0.1317E-01
   ( 15,  1, 86)  ( 17,  1, 89)  (  8,  1, 12)  ( 11,  1, 57)  ( 11,  1, 57)
  0  0.1813E-02  0 -0.1153E-02  0 -0.6304E-03  1  0.4906E-03
   ( 11,  1, 55)  ( 11,  1, 63)  ( 11,  1, 55)  ( 11,  1, 53)

 MAXIMUM RESIDUAL FOR EACH ITERATION (1 INDICATES THE FIRST INNER ITERATION):

    RESIDUAL       RESIDUAL       RESIDUAL       RESIDUAL       RESIDUAL    
   LAYER,ROW,COL  LAYER,ROW,COL  LAYER,ROW,COL  LAYER,ROW,COL  LAYER,ROW,COL
 ---------------------------------------------------------------------------
  1  0.1322E+06  0 -0.9208E+05  0 -0.9041E+05  0 -0.2283E+05  0  -5110.    
   ( 21,  1, 89)  ( 19,  1, 89)  ( 19,  1, 89)  ( 19,  1, 89)  ( 17,  1, 87)
  0   2884.      0   2556.      0   927.8      1   827.7    
   ( 22,  1, 87)  ( 22,  1, 87)  ( 22,  1, 87)  ( 22,  1, 87)


 FLOW MODEL IS TRANSIENT
 FLOW MODEL CONTAINS CONSTANT-HEAD CELLS


 MAXIMUM STEPSIZE DURING WHICH ANY PARTICLE CANNOT MOVE MORE THAN ONE CELL
 =  12.86    (WHEN MIN. R.F.=1)  AT K=  17, I=   1, J=  90

 MAXIMUM STEPSIZE WHICH MEETS STABILITY CRITERION OF THE ADVECTION TERM
 (FOR PURE FINITE-DIFFERENCE OPTION, MIXELM=0) 
 =  8.034    (WHEN MIN. R.F.=1)  AT K=  16, I=   1, J=  90


 TOTAL NUMBER OF POINT SOURCES/SINKS PRESENT IN THE FLOW MODEL =    30

 MAXIMUM STEPSIZE WHICH MEETS STABILITY CRITERION OF THE SINK & SOURCE TERM
 =  12.21    (WHEN MIN. R.F.=1)  AT K=  17, I=   1, J=  91

 MAXIMUM STEPSIZE WHICH MEETS STABILITY CRITERION OF THE DISPERSION TERM
 =  4.035    (WHEN MIN. R.F.=1)  AT K=  17, I=   1, J=  90
     1 CALLS TO GCG PACKAGE FOR TRANSPORT TIME STEP 721 IN FLOW TIME STEP   1 STRESS PERIOD   1
     8 TOTAL ITERATIONS
     1 CALLS TO GCG PACKAGE FOR TRANSPORT TIME STEP 721 IN FLOW TIME STEP   1 STRESS PERIOD   1
     8 TOTAL ITERATIONS
 
 SOLVING FOR HEAD 


     2 CALLS TO PCG ROUTINE FOR TIME STEP   1 IN STRESS PERIOD    1
     9 TOTAL ITERATIONS

 MAXIMUM HEAD CHANGE FOR EACH ITERATION (1 INDICATES THE FIRST INNER ITERATION):

    HEAD CHANGE    HEAD CHANGE    HEAD CHANGE    HEAD CHANGE    HEAD CHANGE 
   LAYER,ROW,COL  LAYER,ROW,COL  LAYER,ROW,COL  LAYER,ROW,COL  LAYER,ROW,COL
 ---------------------------------------------------------------------------
  1 -0.1341E-01  0  0.3713E-02  0  0.2343E-02  0  0.8550E-02  0 -0.8325E-02
   ( 15,  1, 86)  ( 17,  1, 89)  (  7,  1, 12)  ( 11,  1, 69)  ( 11,  1, 68)
  0 -0.1285E-02  0  0.1241E-02  0  0.9134E-03  1 -0.9732E-03
   ( 11,  1, 70)  ( 11,  1, 70)  ( 11,  1, 57)  ( 11,  1, 70)

 MAXIMUM RESIDUAL FOR EACH ITERATION (1 INDICATES THE FIRST INNER ITERATION):

    RESIDUAL       RESIDUAL       RESIDUAL       RESIDUAL       RESIDUAL    
   LAYER,ROW,COL  LAYER,ROW,COL  LAYER,ROW,COL  LAYER,ROW,COL  LAYER,ROW,COL
 ---------------------------------------------------------------------------
  1 -0.1344E+06  0  0.9535E+05  0  0.9335E+05  0  0.3205E+05  0   5969.    
   ( 21,  1, 89)  ( 19,  1, 89)  ( 19,  1, 89)  ( 19,  1, 89)  ( 17,  1, 87)
  0  -2810.      0  -2388.      0  -907.0      1  -743.2    
   ( 22,  1, 87)  ( 22,  1, 87)  ( 22,  1, 87)  ( 22,  1, 87)


 FLOW MODEL IS TRANSIENT
 FLOW MODEL CONTAINS CONSTANT-HEAD CELLS


 MAXIMUM STEPSIZE DURING WHICH ANY PARTICLE CANNOT MOVE MORE THAN ONE CELL
 =  13.20    (WHEN MIN. R.F.=1)  AT K=  17, I=   1, J=  90

 MAXIMUM STEPSIZE WHICH MEETS STABILITY CRITERION OF THE ADVECTION TERM
 (FOR PURE FINITE-DIFFERENCE OPTION, MIXELM=0) 
 =  7.997    (WHEN MIN. R.F.=1)  AT K=  16, I=   1, J=  90


 TOTAL NUMBER OF POINT SOURCES/SINKS PRESENT IN THE FLOW MODEL =    30

 MAXIMUM STEPSIZE WHICH MEETS STABILITY CRITERION OF THE SINK & SOURCE TERM
 =  12.16    (WHEN MIN. R.F.=1)  AT K=  17, I=   1, J=  91

 MAXIMUM STEPSIZE WHICH MEETS STABILITY CRITERION OF THE DISPERSION TERM
 =  4.356    (WHEN MIN. R.F.=1)  AT K=  17, I=   1, J=  90
     1 CALLS TO GCG PACKAGE FOR TRANSPORT TIME STEP 722 IN FLOW TIME STEP   1 STRESS PERIOD   1
     9 TOTAL ITERATIONS
     1 CALLS TO GCG PACKAGE FOR TRANSPORT TIME STEP 722 IN FLOW TIME STEP   1 STRESS PERIOD   1
     8 TOTAL ITERATIONS
 
 SOLVING FOR HEAD 


     2 CALLS TO PCG ROUTINE FOR TIME STEP   1 IN STRESS PERIOD    1
     8 TOTAL ITERATIONS

 MAXIMUM HEAD CHANGE FOR EACH ITERATION (1 INDICATES THE FIRST INNER ITERATION):

    HEAD CHANGE    HEAD CHANGE    HEAD CHANGE    HEAD CHANGE    HEAD CHANGE 
   LAYER,ROW,COL  LAYER,ROW,COL  LAYER,ROW,COL  LAYER,ROW,COL  LAYER,ROW,COL
 ---------------------------------------------------------------------------
  1  0.1358E-01  0 -0.3687E-02  0 -0.2465E-02  0  0.1133E-01  0 -0.1094E-01
   ( 15,  1, 86)  ( 17,  1, 89)  (  8,  1, 12)  ( 11,  1, 56)  ( 11,  1, 56)
  0  0.1629E-02  0 -0.9917E-03  1  0.6285E-03
   ( 11,  1, 53)  ( 11,  1, 64)  ( 11,  1, 64)

 MAXIMUM RESIDUAL FOR EACH ITERATION (1 INDICATES THE FIRST INNER ITERATION):

    RESIDUAL       RESIDUAL       RESIDUAL       RESIDUAL       RESIDUAL    
   LAYER,ROW,COL  LAYER,ROW,COL  LAYER,ROW,COL  LAYER,ROW,COL  LAYER,ROW,COL
 ---------------------------------------------------------------------------
  1  0.1320E+06  0 -0.9241E+05  0 -0.9113E+05  0 -0.2656E+05  0  -5300.    
   ( 21,  1, 89)  ( 19,  1, 89)  ( 19,  1, 89)  ( 19,  1, 89)  ( 17,  1, 87)
  0   2887.      0   2431.      1   2091.    
   ( 22,  1, 87)  ( 22,  1, 87)  ( 22,  1, 87)


 FLOW MODEL IS TRANSIENT
 FLOW MODEL CONTAINS CONSTANT-HEAD CELLS


 MAXIMUM STEPSIZE DURING WHICH ANY PARTICLE CANNOT MOVE MORE THAN ONE CELL
 =  12.85    (WHEN MIN. R.F.=1)  AT K=  17, I=   1, J=  90

 MAXIMUM STEPSIZE WHICH MEETS STABILITY CRITERION OF THE ADVECTION TERM
 (FOR PURE FINITE-DIFFERENCE OPTION, MIXELM=0) 
 =  8.027    (WHEN MIN. R.F.=1)  AT K=  16, I=   1, J=  90


 TOTAL NUMBER OF POINT SOURCES/SINKS PRESENT IN THE FLOW MODEL =    30

 MAXIMUM STEPSIZE WHICH MEETS STABILITY CRITERION OF THE SINK & SOURCE TERM
 =  12.20    (WHEN MIN. R.F.=1)  AT K=  17, I=   1, J=  91

 MAXIMUM STEPSIZE WHICH MEETS STABILITY CRITERION OF THE DISPERSION TERM
 =  4.028    (WHEN MIN. R.F.=1)  AT K=  17, I=   1, J=  90
     1 CALLS TO GCG PACKAGE FOR TRANSPORT TIME STEP 723 IN FLOW TIME STEP   1 STRESS PERIOD   1
     8 TOTAL ITERATIONS
     1 CALLS TO GCG PACKAGE FOR TRANSPORT TIME STEP 723 IN FLOW TIME STEP   1 STRESS PERIOD   1
     8 TOTAL ITERATIONS
 
 SOLVING FOR HEAD 


     2 CALLS TO PCG ROUTINE FOR TIME STEP   1 IN STRESS PERIOD    1
     9 TOTAL ITERATIONS

 MAXIMUM HEAD CHANGE FOR EACH ITERATION (1 INDICATES THE FIRST INNER ITERATION):

    HEAD CHANGE    HEAD CHANGE    HEAD CHANGE    HEAD CHANGE    HEAD CHANGE 
   LAYER,ROW,COL  LAYER,ROW,COL  LAYER,ROW,COL  LAYER,ROW,COL  LAYER,ROW,COL
 ---------------------------------------------------------------------------
  1 -0.1370E-01  0  0.4861E-02  0  0.4033E-02  0 -0.9733E-02  0  0.7689E-02
   ( 15,  1, 86)  ( 11,  1, 65)  (  8,  1, 12)  ( 11,  1, 65)  ( 10,  1, 50)
  0 -0.3155E-02  0  0.1625E-02  0  0.6792E-03  1 -0.6168E-03
   ( 11,  1, 58)  ( 11,  1, 58)  ( 11,  1, 70)  ( 11,  1, 70)

 MAXIMUM RESIDUAL FOR EACH ITERATION (1 INDICATES THE FIRST INNER ITERATION):

    RESIDUAL       RESIDUAL       RESIDUAL       RESIDUAL       RESIDUAL    
   LAYER,ROW,COL  LAYER,ROW,COL  LAYER,ROW,COL  LAYER,ROW,COL  LAYER,ROW,COL
 ---------------------------------------------------------------------------
  1 -0.1345E+06  0  0.9535E+05  0  0.9456E+05  0  0.6585E+05  0   6028.    
   ( 21,  1, 89)  ( 19,  1, 89)  ( 19,  1, 89)  ( 19,  1, 89)  ( 17,  1, 87)
  0  -2767.      0  -2581.      0  -1124.      1  -998.6    
   ( 22,  1, 87)  ( 22,  1, 87)  ( 22,  1, 87)  ( 22,  1, 87)


 FLOW MODEL IS TRANSIENT
 FLOW MODEL CONTAINS CONSTANT-HEAD CELLS


 MAXIMUM STEPSIZE DURING WHICH ANY PARTICLE CANNOT MOVE MORE THAN ONE CELL
 =  13.15    (WHEN MIN. R.F.=1)  AT K=  17, I=   1, J=  90

 MAXIMUM STEPSIZE WHICH MEETS STABILITY CRITERION OF THE ADVECTION TERM
 (FOR PURE FINITE-DIFFERENCE OPTION, MIXELM=0) 
 =  7.975    (WHEN MIN. R.F.=1)  AT K=  16, I=   1, J=  90


 TOTAL NUMBER OF POINT SOURCES/SINKS PRESENT IN THE FLOW MODEL =    30

 MAXIMUM STEPSIZE WHICH MEETS STABILITY CRITERION OF THE SINK & SOURCE TERM
 =  12.09    (WHEN MIN. R.F.=1)  AT K=  17, I=   1, J=  91

 MAXIMUM STEPSIZE WHICH MEETS STABILITY CRITERION OF THE DISPERSION TERM
 =  4.337    (WHEN MIN. R.F.=1)  AT K=  17, I=   1, J=  90
     1 CALLS TO GCG PACKAGE FOR TRANSPORT TIME STEP 724 IN FLOW TIME STEP   1 STRESS PERIOD   1
    10 TOTAL ITERATIONS
     1 CALLS TO GCG PACKAGE FOR TRANSPORT TIME STEP 724 IN FLOW TIME STEP   1 STRESS PERIOD   1
     8 TOTAL ITERATIONS
 
 SOLVING FOR HEAD 


     2 CALLS TO PCG ROUTINE FOR TIME STEP   1 IN STRESS PERIOD    1
     8 TOTAL ITERATIONS

 MAXIMUM HEAD CHANGE FOR EACH ITERATION (1 INDICATES THE FIRST INNER ITERATION):

    HEAD CHANGE    HEAD CHANGE    HEAD CHANGE    HEAD CHANGE    HEAD CHANGE 
   LAYER,ROW,COL  LAYER,ROW,COL  LAYER,ROW,COL  LAYER,ROW,COL  LAYER,ROW,COL
 ---------------------------------------------------------------------------
  1  0.1367E-01  0 -0.4049E-02  0 -0.3562E-02  0 -0.9071E-02  0  0.1064E-01
   ( 15,  1, 86)  ( 17,  1, 89)  (  8,  1, 12)  ( 11,  1, 57)  ( 11,  1, 57)
  0 -0.1955E-02  0 -0.5816E-03  1 -0.4722E-03
   ( 11,  1, 58)  ( 11,  1, 38)  ( 11,  1, 68)

 MAXIMUM RESIDUAL FOR EACH ITERATION (1 INDICATES THE FIRST INNER ITERATION):

    RESIDUAL       RESIDUAL       RESIDUAL       RESIDUAL       RESIDUAL    
   LAYER,ROW,COL  LAYER,ROW,COL  LAYER,ROW,COL  LAYER,ROW,COL  LAYER,ROW,COL
 ---------------------------------------------------------------------------
  1  0.1337E+06  0 -0.9521E+05  0 -0.9436E+05  0 -0.2013E+05  0   4967.    
   ( 21,  1, 89)  ( 19,  1, 89)  ( 19,  1, 89)  ( 19,  1, 89)  ( 17,  1, 88)
  0   2774.      0   2422.      1   2064.    
   ( 22,  1, 87)  ( 22,  1, 87)  ( 22,  1, 87)


 FLOW MODEL IS TRANSIENT
 FLOW MODEL CONTAINS CONSTANT-HEAD CELLS


 MAXIMUM STEPSIZE DURING WHICH ANY PARTICLE CANNOT MOVE MORE THAN ONE CELL
 =  12.83    (WHEN MIN. R.F.=1)  AT K=  17, I=   1, J=  90

 MAXIMUM STEPSIZE WHICH MEETS STABILITY CRITERION OF THE ADVECTION TERM
 (FOR PURE FINITE-DIFFERENCE OPTION, MIXELM=0) 
 =  8.025    (WHEN MIN. R.F.=1)  AT K=  16, I=   1, J=  90


 TOTAL NUMBER OF POINT SOURCES/SINKS PRESENT IN THE FLOW MODEL =    30

 MAXIMUM STEPSIZE WHICH MEETS STABILITY CRITERION OF THE SINK & SOURCE TERM
 =  12.18    (WHEN MIN. R.F.=1)  AT K=  17, I=   1, J=  91

 MAXIMUM STEPSIZE WHICH MEETS STABILITY CRITERION OF THE DISPERSION TERM
 =  4.019    (WHEN MIN. R.F.=1)  AT K=  17, I=   1, J=  90
     1 CALLS TO GCG PACKAGE FOR TRANSPORT TIME STEP 725 IN FLOW TIME STEP   1 STRESS PERIOD   1
     8 TOTAL ITERATIONS
  MAXIMUM CONCENTRATION CHANGES FOR EACH ITERATION:
  MAX. CHANGE LAYER,ROW,COL MAX. CHANGE LAYER,ROW,COL MAX. CHANGE LAYER,ROW,COL MAX. CHANGE LAYER,ROW,COL MAX. CHANGE LAYER,ROW,COL
 ------------------------------------------------------------------------------------------------------------------------------------
   0.5214E-01 ( 20,  1, 87)  0.4247E-02 ( 19,  1, 89)  0.2089E-02 ( 17,  1, 86)  0.4667E-03 ( 20,  1, 89)  0.9274E-04 ( 16,  1, 89)
   0.2123E-04 ( 20,  1, 89)  0.1957E-04 ( 16,  1, 90)  0.6319E-06 ( 17,  1, 90)
     1 CALLS TO GCG PACKAGE FOR TRANSPORT TIME STEP 725 IN FLOW TIME STEP   1 STRESS PERIOD   1
     8 TOTAL ITERATIONS
  MAXIMUM CONCENTRATION CHANGES FOR EACH ITERATION:
  MAX. CHANGE LAYER,ROW,COL MAX. CHANGE LAYER,ROW,COL MAX. CHANGE LAYER,ROW,COL MAX. CHANGE LAYER,ROW,COL MAX. CHANGE LAYER,ROW,COL
 ------------------------------------------------------------------------------------------------------------------------------------
   0.5769E-01 ( 20,  1, 87)  0.4740E-02 ( 19,  1, 89)  0.2090E-02 ( 18,  1, 86)  0.4195E-03 ( 20,  1, 89)  0.1054E-03 ( 16,  1, 89)
   0.1708E-04 ( 23,  1, 87)  0.1714E-04 ( 16,  1, 90)  0.8253E-06 ( 17,  1, 90)
 
 SOLVING FOR HEAD 


     2 CALLS TO PCG ROUTINE FOR TIME STEP   1 IN STRESS PERIOD    1
     9 TOTAL ITERATIONS

 MAXIMUM HEAD CHANGE FOR EACH ITERATION (1 INDICATES THE FIRST INNER ITERATION):

    HEAD CHANGE    HEAD CHANGE    HEAD CHANGE    HEAD CHANGE    HEAD CHANGE 
   LAYER,ROW,COL  LAYER,ROW,COL  LAYER,ROW,COL  LAYER,ROW,COL  LAYER,ROW,COL
 ---------------------------------------------------------------------------
  1 -0.1371E-01  0 -0.6365E-02  0  0.4163E-02  0  0.8600E-02  0 -0.6604E-02
   ( 15,  1, 86)  (  5,  1, 41)  (  7,  1, 12)  (  6,  1, 43)  (  8,  1, 47)
  0 -0.3412E-02  0  0.1435E-02  0  0.7062E-03  1 -0.5081E-03
   ( 11,  1, 49)  ( 11,  1, 49)  ( 11,  1, 59)  ( 11,  1, 59)

 MAXIMUM RESIDUAL FOR EACH ITERATION (1 INDICATES THE FIRST INNER ITERATION):

    RESIDUAL       RESIDUAL       RESIDUAL       RESIDUAL       RESIDUAL    
   LAYER,ROW,COL  LAYER,ROW,COL  LAYER,ROW,COL  LAYER,ROW,COL  LAYER,ROW,COL
 ---------------------------------------------------------------------------
  1 -0.1321E+06  0  0.9252E+05  0  0.9183E+05  0  0.7044E+05  0   6194.    
   ( 21,  1, 89)  ( 19,  1, 89)  ( 19,  1, 89)  ( 19,  1, 89)  ( 17,  1, 87)
  0  -2836.      0  -2612.      0  -847.1      1  -736.9    
   ( 17,  1, 88)  ( 22,  1, 87)  ( 22,  1, 87)  ( 22,  1, 87)


 FLOW MODEL IS TRANSIENT
 FLOW MODEL CONTAINS CONSTANT-HEAD CELLS


 MAXIMUM STEPSIZE DURING WHICH ANY PARTICLE CANNOT MOVE MORE THAN ONE CELL
 =  13.17    (WHEN MIN. R.F.=1)  AT K=  17, I=   1, J=  90

 MAXIMUM STEPSIZE WHICH MEETS STABILITY CRITERION OF THE ADVECTION TERM
 (FOR PURE FINITE-DIFFERENCE OPTION, MIXELM=0) 
 =  7.982    (WHEN MIN. R.F.=1)  AT K=  16, I=   1, J=  90


 TOTAL NUMBER OF POINT SOURCES/SINKS PRESENT IN THE FLOW MODEL =    30

 MAXIMUM STEPSIZE WHICH MEETS STABILITY CRITERION OF THE SINK & SOURCE TERM
 =  12.11    (WHEN MIN. R.F.=1)  AT K=  17, I=   1, J=  91

 MAXIMUM STEPSIZE WHICH MEETS STABILITY CRITERION OF THE DISPERSION TERM
 =  4.352    (WHEN MIN. R.F.=1)  AT K=  17, I=   1, J=  90
     1 CALLS TO GCG PACKAGE FOR TRANSPORT TIME STEP 726 IN FLOW TIME STEP   1 STRESS PERIOD   1
     7 TOTAL ITERATIONS
     1 CALLS TO GCG PACKAGE FOR TRANSPORT TIME STEP 726 IN FLOW TIME STEP   1 STRESS PERIOD   1
     8 TOTAL ITERATIONS
 
 SOLVING FOR HEAD 


     2 CALLS TO PCG ROUTINE FOR TIME STEP   1 IN STRESS PERIOD    1
     9 TOTAL ITERATIONS

 MAXIMUM HEAD CHANGE FOR EACH ITERATION (1 INDICATES THE FIRST INNER ITERATION):

    HEAD CHANGE    HEAD CHANGE    HEAD CHANGE    HEAD CHANGE    HEAD CHANGE 
   LAYER,ROW,COL  LAYER,ROW,COL  LAYER,ROW,COL  LAYER,ROW,COL  LAYER,ROW,COL
 ---------------------------------------------------------------------------
  1  0.1353E-01  0 -0.4060E-02  0 -0.2725E-02  0  0.8589E-02  0 -0.9839E-02
   ( 15,  1, 86)  ( 17,  1, 89)  (  8,  1, 12)  ( 11,  1, 59)  ( 11,  1, 59)
  0  0.2512E-02  0 -0.1209E-02  0 -0.5496E-03  1  0.5073E-03
   ( 11,  1, 59)  ( 11,  1, 54)  ( 11,  1, 70)  ( 11,  1, 63)

 MAXIMUM RESIDUAL FOR EACH ITERATION (1 INDICATES THE FIRST INNER ITERATION):

    RESIDUAL       RESIDUAL       RESIDUAL       RESIDUAL       RESIDUAL    
   LAYER,ROW,COL  LAYER,ROW,COL  LAYER,ROW,COL  LAYER,ROW,COL  LAYER,ROW,COL
 ---------------------------------------------------------------------------
  1  0.1337E+06  0 -0.9482E+05  0 -0.9371E+05  0 -0.1771E+05  0   4526.    
   ( 21,  1, 89)  ( 19,  1, 89)  ( 19,  1, 89)  ( 19,  1, 89)  ( 17,  1, 88)
  0   2742.      0   2332.      0   688.7      1   585.2    
   ( 22,  1, 87)  ( 22,  1, 87)  ( 22,  1, 87)  ( 22,  1, 87)


 FLOW MODEL IS TRANSIENT
 FLOW MODEL CONTAINS CONSTANT-HEAD CELLS


 MAXIMUM STEPSIZE DURING WHICH ANY PARTICLE CANNOT MOVE MORE THAN ONE CELL
 =  12.84    (WHEN MIN. R.F.=1)  AT K=  17, I=   1, J=  90

 MAXIMUM STEPSIZE WHICH MEETS STABILITY CRITERION OF THE ADVECTION TERM
 (FOR PURE FINITE-DIFFERENCE OPTION, MIXELM=0) 
 =  8.028    (WHEN MIN. R.F.=1)  AT K=  16, I=   1, J=  90


 TOTAL NUMBER OF POINT SOURCES/SINKS PRESENT IN THE FLOW MODEL =    30

 MAXIMUM STEPSIZE WHICH MEETS STABILITY CRITERION OF THE SINK & SOURCE TERM
 =  12.18    (WHEN MIN. R.F.=1)  AT K=  17, I=   1, J=  91

 MAXIMUM STEPSIZE WHICH MEETS STABILITY CRITERION OF THE DISPERSION TERM
 =  4.021    (WHEN MIN. R.F.=1)  AT K=  17, I=   1, J=  90
     1 CALLS TO GCG PACKAGE FOR TRANSPORT TIME STEP 727 IN FLOW TIME STEP   1 STRESS PERIOD   1
     8 TOTAL ITERATIONS
     1 CALLS TO GCG PACKAGE FOR TRANSPORT TIME STEP 727 IN FLOW TIME STEP   1 STRESS PERIOD   1
     8 TOTAL ITERATIONS
 
 SOLVING FOR HEAD 


     2 CALLS TO PCG ROUTINE FOR TIME STEP   1 IN STRESS PERIOD    1
     8 TOTAL ITERATIONS

 MAXIMUM HEAD CHANGE FOR EACH ITERATION (1 INDICATES THE FIRST INNER ITERATION):

    HEAD CHANGE    HEAD CHANGE    HEAD CHANGE    HEAD CHANGE    HEAD CHANGE 
   LAYER,ROW,COL  LAYER,ROW,COL  LAYER,ROW,COL  LAYER,ROW,COL  LAYER,ROW,COL
 ---------------------------------------------------------------------------
  1 -0.1335E-01  0  0.3651E-02  0  0.2372E-02  0  0.9807E-02  0 -0.1024E-01
   ( 15,  1, 86)  ( 17,  1, 89)  (  8,  1, 12)  ( 11,  1, 52)  ( 11,  1, 52)
  0 -0.1780E-02  0  0.8378E-03  1 -0.4275E-03
   ( 11,  1, 70)  ( 11,  1, 69)  (  9,  1, 39)

 MAXIMUM RESIDUAL FOR EACH ITERATION (1 INDICATES THE FIRST INNER ITERATION):

    RESIDUAL       RESIDUAL       RESIDUAL       RESIDUAL       RESIDUAL    
   LAYER,ROW,COL  LAYER,ROW,COL  LAYER,ROW,COL  LAYER,ROW,COL  LAYER,ROW,COL
 ---------------------------------------------------------------------------
  1 -0.1304E+06  0  0.9131E+05  0  0.8986E+05  0  0.2854E+05  0   5878.    
   ( 21,  1, 89)  ( 19,  1, 89)  ( 19,  1, 89)  ( 19,  1, 89)  ( 17,  1, 87)
  0  -2824.      0  -2561.      1  -1964.    
   ( 22,  1, 87)  ( 22,  1, 87)  ( 22,  1, 87)


 FLOW MODEL IS TRANSIENT
 FLOW MODEL CONTAINS CONSTANT-HEAD CELLS


 MAXIMUM STEPSIZE DURING WHICH ANY PARTICLE CANNOT MOVE MORE THAN ONE CELL
 =  13.23    (WHEN MIN. R.F.=1)  AT K=  17, I=   1, J=  90

 MAXIMUM STEPSIZE WHICH MEETS STABILITY CRITERION OF THE ADVECTION TERM
 (FOR PURE FINITE-DIFFERENCE OPTION, MIXELM=0) 
 =  8.009    (WHEN MIN. R.F.=1)  AT K=  16, I=   1, J=  90


 TOTAL NUMBER OF POINT SOURCES/SINKS PRESENT IN THE FLOW MODEL =    30

 MAXIMUM STEPSIZE WHICH MEETS STABILITY CRITERION OF THE SINK & SOURCE TERM
 =  12.18    (WHEN MIN. R.F.=1)  AT K=  17, I=   1, J=  91

 MAXIMUM STEPSIZE WHICH MEETS STABILITY CRITERION OF THE DISPERSION TERM
 =  4.373    (WHEN MIN. R.F.=1)  AT K=  17, I=   1, J=  90
     1 CALLS TO GCG PACKAGE FOR TRANSPORT TIME STEP 728 IN FLOW TIME STEP   1 STRESS PERIOD   1
    10 TOTAL ITERATIONS
     1 CALLS TO GCG PACKAGE FOR TRANSPORT TIME STEP 728 IN FLOW TIME STEP   1 STRESS PERIOD   1
     8 TOTAL ITERATIONS
 
 SOLVING FOR HEAD 


     2 CALLS TO PCG ROUTINE FOR TIME STEP   1 IN STRESS PERIOD    1
     9 TOTAL ITERATIONS

 MAXIMUM HEAD CHANGE FOR EACH ITERATION (1 INDICATES THE FIRST INNER ITERATION):

    HEAD CHANGE    HEAD CHANGE    HEAD CHANGE    HEAD CHANGE    HEAD CHANGE 
   LAYER,ROW,COL  LAYER,ROW,COL  LAYER,ROW,COL  LAYER,ROW,COL  LAYER,ROW,COL
 ---------------------------------------------------------------------------
  1  0.1370E-01  0 -0.5731E-02  0 -0.4030E-02  0  0.9558E-02  0 -0.6923E-02
   ( 15,  1, 86)  (  9,  1, 43)  (  8,  1, 12)  (  8,  1, 42)  (  7,  1, 44)
  0  0.3909E-02  0  0.1215E-02  0 -0.7249E-03  1  0.5344E-03
   ( 11,  1, 62)  ( 11,  1, 52)  ( 11,  1, 50)  ( 11,  1, 61)

 MAXIMUM RESIDUAL FOR EACH ITERATION (1 INDICATES THE FIRST INNER ITERATION):

    RESIDUAL       RESIDUAL       RESIDUAL       RESIDUAL       RESIDUAL    
   LAYER,ROW,COL  LAYER,ROW,COL  LAYER,ROW,COL  LAYER,ROW,COL  LAYER,ROW,COL
 ---------------------------------------------------------------------------
  1  0.1338E+06  0 -0.9398E+05  0 -0.9318E+05  0 -0.7603E+05  0  -6356.    
   ( 21,  1, 89)  ( 19,  1, 89)  ( 19,  1, 89)  ( 19,  1, 89)  ( 17,  1, 87)
  0   3100.      0   2629.      0   1682.      1   1494.    
   ( 17,  1, 88)  ( 22,  1, 87)  ( 22,  1, 87)  ( 22,  1, 87)


 FLOW MODEL IS TRANSIENT
 FLOW MODEL CONTAINS CONSTANT-HEAD CELLS


 MAXIMUM STEPSIZE DURING WHICH ANY PARTICLE CANNOT MOVE MORE THAN ONE CELL
 =  12.92    (WHEN MIN. R.F.=1)  AT K=  17, I=   1, J=  90

 MAXIMUM STEPSIZE WHICH MEETS STABILITY CRITERION OF THE ADVECTION TERM
 (FOR PURE FINITE-DIFFERENCE OPTION, MIXELM=0) 
 =  8.061    (WHEN MIN. R.F.=1)  AT K=  16, I=   1, J=  90


 TOTAL NUMBER OF POINT SOURCES/SINKS PRESENT IN THE FLOW MODEL =    30

 MAXIMUM STEPSIZE WHICH MEETS STABILITY CRITERION OF THE SINK & SOURCE TERM
 =  12.30    (WHEN MIN. R.F.=1)  AT K=  17, I=   1, J=  91

 MAXIMUM STEPSIZE WHICH MEETS STABILITY CRITERION OF THE DISPERSION TERM
 =  4.057    (WHEN MIN. R.F.=1)  AT K=  17, I=   1, J=  90
     1 CALLS TO GCG PACKAGE FOR TRANSPORT TIME STEP 729 IN FLOW TIME STEP   1 STRESS PERIOD   1
     8 TOTAL ITERATIONS
     1 CALLS TO GCG PACKAGE FOR TRANSPORT TIME STEP 729 IN FLOW TIME STEP   1 STRESS PERIOD   1
     8 TOTAL ITERATIONS
 
 SOLVING FOR HEAD 


     2 CALLS TO PCG ROUTINE FOR TIME STEP   1 IN STRESS PERIOD    1
     8 TOTAL ITERATIONS

 MAXIMUM HEAD CHANGE FOR EACH ITERATION (1 INDICATES THE FIRST INNER ITERATION):

    HEAD CHANGE    HEAD CHANGE    HEAD CHANGE    HEAD CHANGE    HEAD CHANGE 
   LAYER,ROW,COL  LAYER,ROW,COL  LAYER,ROW,COL  LAYER,ROW,COL  LAYER,ROW,COL
 ---------------------------------------------------------------------------
  1 -0.1376E-01  0  0.4148E-02  0  0.4527E-02  0 -0.9838E-02  0 -0.1026E-01
   ( 15,  1, 86)  ( 17,  1, 89)  (  8,  1, 12)  ( 11,  1, 50)  ( 11,  1, 68)
  0  0.1832E-02  0  0.8052E-03  1  0.5656E-03
   ( 11,  1, 66)  ( 11,  1, 38)  ( 11,  1, 61)

 MAXIMUM RESIDUAL FOR EACH ITERATION (1 INDICATES THE FIRST INNER ITERATION):

    RESIDUAL       RESIDUAL       RESIDUAL       RESIDUAL       RESIDUAL    
   LAYER,ROW,COL  LAYER,ROW,COL  LAYER,ROW,COL  LAYER,ROW,COL  LAYER,ROW,COL
 ---------------------------------------------------------------------------
  1 -0.1374E+06  0  0.9822E+05  0  0.9752E+05  0  0.2809E+05  0  -5320.    
   ( 21,  1, 89)  ( 19,  1, 89)  ( 19,  1, 89)  ( 19,  1, 89)  ( 17,  1, 88)
  0  -2789.      0  -2551.      1  -1927.    
   ( 22,  1, 87)  ( 22,  1, 87)  ( 22,  1, 87)


 FLOW MODEL IS TRANSIENT
 FLOW MODEL CONTAINS CONSTANT-HEAD CELLS


 MAXIMUM STEPSIZE DURING WHICH ANY PARTICLE CANNOT MOVE MORE THAN ONE CELL
 =  13.23    (WHEN MIN. R.F.=1)  AT K=  17, I=   1, J=  90

 MAXIMUM STEPSIZE WHICH MEETS STABILITY CRITERION OF THE ADVECTION TERM
 (FOR PURE FINITE-DIFFERENCE OPTION, MIXELM=0) 
 =  8.004    (WHEN MIN. R.F.=1)  AT K=  16, I=   1, J=  90


 TOTAL NUMBER OF POINT SOURCES/SINKS PRESENT IN THE FLOW MODEL =    30

 MAXIMUM STEPSIZE WHICH MEETS STABILITY CRITERION OF THE SINK & SOURCE TERM
 =  12.19    (WHEN MIN. R.F.=1)  AT K=  17, I=   1, J=  91

 MAXIMUM STEPSIZE WHICH MEETS STABILITY CRITERION OF THE DISPERSION TERM
 =  4.373    (WHEN MIN. R.F.=1)  AT K=  17, I=   1, J=  90
     1 CALLS TO GCG PACKAGE FOR TRANSPORT TIME STEP 730 IN FLOW TIME STEP   1 STRESS PERIOD   1
    10 TOTAL ITERATIONS
  MAXIMUM CONCENTRATION CHANGES FOR EACH ITERATION:
  MAX. CHANGE LAYER,ROW,COL MAX. CHANGE LAYER,ROW,COL MAX. CHANGE LAYER,ROW,COL MAX. CHANGE LAYER,ROW,COL MAX. CHANGE LAYER,ROW,COL
 ------------------------------------------------------------------------------------------------------------------------------------
   0.4851E-01 ( 20,  1, 87)  0.3330E-02 ( 19,  1, 87)  0.2164E-02 ( 18,  1, 87)  0.2157E-03 ( 16,  1, 88)  0.1455E-03 ( 17,  1, 89)
   0.2818E-04 ( 16,  1, 90)  0.2553E-05 ( 21,  1, 78)  0.1603E-05 ( 21,  1, 78)  0.1161E-05 ( 16,  1, 89)  0.1158E-06 ( 17,  1, 89)
     1 CALLS TO GCG PACKAGE FOR TRANSPORT TIME STEP 730 IN FLOW TIME STEP   1 STRESS PERIOD   1
     8 TOTAL ITERATIONS
  MAXIMUM CONCENTRATION CHANGES FOR EACH ITERATION:
  MAX. CHANGE LAYER,ROW,COL MAX. CHANGE LAYER,ROW,COL MAX. CHANGE LAYER,ROW,COL MAX. CHANGE LAYER,ROW,COL MAX. CHANGE LAYER,ROW,COL
 ------------------------------------------------------------------------------------------------------------------------------------
   0.5335E-01 ( 20,  1, 87)  0.3609E-02 ( 19,  1, 87)  0.2303E-02 ( 18,  1, 87)  0.2218E-03 ( 16,  1, 88)  0.1362E-03 ( 17,  1, 89)
   0.3424E-04 ( 16,  1, 90)  0.4852E-05 ( 17,  1, 90)  0.5822E-06 ( 16,  1, 89)



 >>>>>>>>>>>>>>>>>>>>>>>>>>>>>>>>>>>>>>>>>>>>>>>>>>>>>>>FOR COMPONENT NO. 01<<<<<<<<<<<<<<<<<<<<<<<<<<<<<<<<<<<<<<<<<<<<<<<<<<<<<<<


                                            -------------------------------------------
                                                      TRANSPORT STEP NO.  730
                                            -------------------------------------------

 TOTAL ELAPSED TIME SINCE BEGINNING OF SIMULATION =   36500.00    D   
 .....................................................................

                     CUMMULATIVE MASS BUDGETS AT END OF TRANSPORT STEP  730, TIME STEP    1, STRESS PERIOD    1
                     ------------------------------------------------------------------------------------------

                                                             IN                           OUT
                                                      ----------------             ----------------
                               CONSTANT CONCENTRATION:    0.000000                    0.000000    
                                        CONSTANT HEAD:   0.1444341E+10              -0.1444131E+10
                                                WELLS:    0.000000                    0.000000    
                                             RECHARGE:    0.000000                    0.000000    
                               1ST/0TH ORDER REACTION:    0.000000                    0.000000    
                                MASS STORAGE (SOLUTE):   0.2019227E+09              -0.2021334E+09
                            ---------------------------------------------------------------------------
                                              [TOTAL]:   0.1646266E+10 KG           -0.1646266E+10 KG  

                                                          NET (IN - OUT):   -258.2239    
                                                   DISCREPANCY (PERCENT):  -0.1568543E-04



 >>>>>>>>>>>>>>>>>>>>>>>>>>>>>>>>>>>>>>>>>>>>>>>>>>>>>>>FOR COMPONENT NO. 02<<<<<<<<<<<<<<<<<<<<<<<<<<<<<<<<<<<<<<<<<<<<<<<<<<<<<<<


                                            -------------------------------------------
                                                      TRANSPORT STEP NO.  730
                                            -------------------------------------------

 TOTAL ELAPSED TIME SINCE BEGINNING OF SIMULATION =   36500.00    D   
 .....................................................................

                     CUMMULATIVE MASS BUDGETS AT END OF TRANSPORT STEP  730, TIME STEP    1, STRESS PERIOD    1
                     ------------------------------------------------------------------------------------------

                                                             IN                           OUT
                                                      ----------------             ----------------
                               CONSTANT CONCENTRATION:    0.000000                    0.000000    
                                        CONSTANT HEAD:    0.000000                  -0.2817348E+12
                                                WELLS:    0.000000                    0.000000    
                                             RECHARGE:    0.000000                    0.000000    
                               1ST/0TH ORDER REACTION:   0.6040750E+12                0.000000    
                                MASS STORAGE (SOLUTE):   0.1029229E+12              -0.4252632E+12
                            ---------------------------------------------------------------------------
                                              [TOTAL]:   0.7069993E+12 KG           -0.7069994E+12 KG  

                                                          NET (IN - OUT):   -95879.57    
                                                   DISCREPANCY (PERCENT):  -0.1356148E-04
 
 SOLVING FOR HEAD 


     2 CALLS TO PCG ROUTINE FOR TIME STEP   1 IN STRESS PERIOD    1
     9 TOTAL ITERATIONS

 MAXIMUM HEAD CHANGE FOR EACH ITERATION (1 INDICATES THE FIRST INNER ITERATION):

    HEAD CHANGE    HEAD CHANGE    HEAD CHANGE    HEAD CHANGE    HEAD CHANGE 
   LAYER,ROW,COL  LAYER,ROW,COL  LAYER,ROW,COL  LAYER,ROW,COL  LAYER,ROW,COL
 ---------------------------------------------------------------------------
  1  0.1368E-01  0  0.8348E-02  0 -0.3337E-02  0 -0.9265E-02  0  0.6330E-02
   ( 15,  1, 86)  (  6,  1, 44)  (  7,  1, 12)  (  7,  1, 45)  (  8,  1, 48)
  0 -0.4657E-02  0 -0.1121E-02  0 -0.8427E-03  1 -0.6822E-03
   ( 11,  1, 68)  ( 11,  1, 50)  ( 11,  1, 63)  ( 11,  1, 55)

 MAXIMUM RESIDUAL FOR EACH ITERATION (1 INDICATES THE FIRST INNER ITERATION):

    RESIDUAL       RESIDUAL       RESIDUAL       RESIDUAL       RESIDUAL    
   LAYER,ROW,COL  LAYER,ROW,COL  LAYER,ROW,COL  LAYER,ROW,COL  LAYER,ROW,COL
 ---------------------------------------------------------------------------
  1  0.1372E+06  0 -0.9797E+05  0 -0.9692E+05  0 -0.8039E+05  0  -6442.    
   ( 21,  1, 89)  ( 19,  1, 89)  ( 19,  1, 89)  ( 19,  1, 89)  ( 17,  1, 87)
  0   3186.      0   2570.      0   1567.      1   1390.    
   ( 17,  1, 88)  ( 22,  1, 87)  ( 22,  1, 87)  ( 22,  1, 87)


 FLOW MODEL IS TRANSIENT
 FLOW MODEL CONTAINS CONSTANT-HEAD CELLS


 MAXIMUM STEPSIZE DURING WHICH ANY PARTICLE CANNOT MOVE MORE THAN ONE CELL
 =  12.87    (WHEN MIN. R.F.=1)  AT K=  17, I=   1, J=  90

 MAXIMUM STEPSIZE WHICH MEETS STABILITY CRITERION OF THE ADVECTION TERM
 (FOR PURE FINITE-DIFFERENCE OPTION, MIXELM=0) 
 =  8.046    (WHEN MIN. R.F.=1)  AT K=  16, I=   1, J=  90


 TOTAL NUMBER OF POINT SOURCES/SINKS PRESENT IN THE FLOW MODEL =    30

 MAXIMUM STEPSIZE WHICH MEETS STABILITY CRITERION OF THE SINK & SOURCE TERM
 =  12.24    (WHEN MIN. R.F.=1)  AT K=  17, I=   1, J=  91

 MAXIMUM STEPSIZE WHICH MEETS STABILITY CRITERION OF THE DISPERSION TERM
 =  4.030    (WHEN MIN. R.F.=1)  AT K=  17, I=   1, J=  90
     1 CALLS TO GCG PACKAGE FOR TRANSPORT TIME STEP 731 IN FLOW TIME STEP   1 STRESS PERIOD   1
     8 TOTAL ITERATIONS
     1 CALLS TO GCG PACKAGE FOR TRANSPORT TIME STEP 731 IN FLOW TIME STEP   1 STRESS PERIOD   1
     8 TOTAL ITERATIONS
 
 SOLVING FOR HEAD 


     2 CALLS TO PCG ROUTINE FOR TIME STEP   1 IN STRESS PERIOD    1
     9 TOTAL ITERATIONS

 MAXIMUM HEAD CHANGE FOR EACH ITERATION (1 INDICATES THE FIRST INNER ITERATION):

    HEAD CHANGE    HEAD CHANGE    HEAD CHANGE    HEAD CHANGE    HEAD CHANGE 
   LAYER,ROW,COL  LAYER,ROW,COL  LAYER,ROW,COL  LAYER,ROW,COL  LAYER,ROW,COL
 ---------------------------------------------------------------------------
  1 -0.1371E-01  0 -0.4431E-02  0  0.4872E-02  0  0.1082E-01  0 -0.1200E-01
   ( 15,  1, 86)  (  7,  1, 12)  (  8,  1, 12)  ( 11,  1, 54)  ( 11,  1, 54)
  0  0.2010E-02  0  0.1034E-02  0  0.6037E-03  1 -0.2834E-03
   ( 11,  1, 52)  ( 11,  1, 70)  ( 11,  1, 49)  ( 11,  1, 70)

 MAXIMUM RESIDUAL FOR EACH ITERATION (1 INDICATES THE FIRST INNER ITERATION):

    RESIDUAL       RESIDUAL       RESIDUAL       RESIDUAL       RESIDUAL    
   LAYER,ROW,COL  LAYER,ROW,COL  LAYER,ROW,COL  LAYER,ROW,COL  LAYER,ROW,COL
 ---------------------------------------------------------------------------
  1 -0.1353E+06  0  0.9569E+05  0  0.9509E+05  0  0.2417E+05  0  -5220.    
   ( 21,  1, 89)  ( 19,  1, 89)  ( 19,  1, 89)  ( 19,  1, 89)  ( 17,  1, 88)
  0  -2813.      0  -2407.      0  -718.2      1  -632.7    
   ( 22,  1, 87)  ( 22,  1, 87)  ( 22,  1, 87)  ( 22,  1, 87)


 FLOW MODEL IS TRANSIENT
 FLOW MODEL CONTAINS CONSTANT-HEAD CELLS


 MAXIMUM STEPSIZE DURING WHICH ANY PARTICLE CANNOT MOVE MORE THAN ONE CELL
 =  13.23    (WHEN MIN. R.F.=1)  AT K=  17, I=   1, J=  90

 MAXIMUM STEPSIZE WHICH MEETS STABILITY CRITERION OF THE ADVECTION TERM
 (FOR PURE FINITE-DIFFERENCE OPTION, MIXELM=0) 
 =  8.003    (WHEN MIN. R.F.=1)  AT K=  16, I=   1, J=  90


 TOTAL NUMBER OF POINT SOURCES/SINKS PRESENT IN THE FLOW MODEL =    30

 MAXIMUM STEPSIZE WHICH MEETS STABILITY CRITERION OF THE SINK & SOURCE TERM
 =  12.17    (WHEN MIN. R.F.=1)  AT K=  17, I=   1, J=  91

 MAXIMUM STEPSIZE WHICH MEETS STABILITY CRITERION OF THE DISPERSION TERM
 =  4.381    (WHEN MIN. R.F.=1)  AT K=  17, I=   1, J=  90
     1 CALLS TO GCG PACKAGE FOR TRANSPORT TIME STEP 732 IN FLOW TIME STEP   1 STRESS PERIOD   1
     9 TOTAL ITERATIONS
     1 CALLS TO GCG PACKAGE FOR TRANSPORT TIME STEP 732 IN FLOW TIME STEP   1 STRESS PERIOD   1
     8 TOTAL ITERATIONS
 
 SOLVING FOR HEAD 


     2 CALLS TO PCG ROUTINE FOR TIME STEP   1 IN STRESS PERIOD    1
     9 TOTAL ITERATIONS

 MAXIMUM HEAD CHANGE FOR EACH ITERATION (1 INDICATES THE FIRST INNER ITERATION):

    HEAD CHANGE    HEAD CHANGE    HEAD CHANGE    HEAD CHANGE    HEAD CHANGE 
   LAYER,ROW,COL  LAYER,ROW,COL  LAYER,ROW,COL  LAYER,ROW,COL  LAYER,ROW,COL
 ---------------------------------------------------------------------------
  1  0.1333E-01  0 -0.3899E-02  0 -0.2623E-02  0 -0.8178E-02  0  0.8903E-02
   ( 15,  1, 86)  ( 17,  1, 89)  (  7,  1, 12)  (  8,  1, 47)  (  8,  1, 47)
  0  0.1069E-02  0 -0.1111E-02  0 -0.6582E-03  1  0.6865E-03
   ( 11,  1, 49)  ( 11,  1, 50)  ( 11,  1, 70)  ( 11,  1, 66)

 MAXIMUM RESIDUAL FOR EACH ITERATION (1 INDICATES THE FIRST INNER ITERATION):

    RESIDUAL       RESIDUAL       RESIDUAL       RESIDUAL       RESIDUAL    
   LAYER,ROW,COL  LAYER,ROW,COL  LAYER,ROW,COL  LAYER,ROW,COL  LAYER,ROW,COL
 ---------------------------------------------------------------------------
  1  0.1355E+06  0 -0.9603E+05  0 -0.9245E+05  0 -0.3997E+05  0  -6130.    
   ( 21,  1, 89)  ( 19,  1, 89)  ( 19,  1, 89)  ( 19,  1, 89)  ( 17,  1, 87)
  0   2833.      0   2151.      0   815.1      1   679.6    
   ( 22,  1, 87)  ( 22,  1, 87)  ( 22,  1, 87)  ( 22,  1, 87)


 FLOW MODEL IS TRANSIENT
 FLOW MODEL CONTAINS CONSTANT-HEAD CELLS


 MAXIMUM STEPSIZE DURING WHICH ANY PARTICLE CANNOT MOVE MORE THAN ONE CELL
 =  12.84    (WHEN MIN. R.F.=1)  AT K=  17, I=   1, J=  90

 MAXIMUM STEPSIZE WHICH MEETS STABILITY CRITERION OF THE ADVECTION TERM
 (FOR PURE FINITE-DIFFERENCE OPTION, MIXELM=0) 
 =  8.033    (WHEN MIN. R.F.=1)  AT K=  16, I=   1, J=  90


 TOTAL NUMBER OF POINT SOURCES/SINKS PRESENT IN THE FLOW MODEL =    30

 MAXIMUM STEPSIZE WHICH MEETS STABILITY CRITERION OF THE SINK & SOURCE TERM
 =  12.20    (WHEN MIN. R.F.=1)  AT K=  17, I=   1, J=  91

 MAXIMUM STEPSIZE WHICH MEETS STABILITY CRITERION OF THE DISPERSION TERM
 =  4.024    (WHEN MIN. R.F.=1)  AT K=  17, I=   1, J=  90
     1 CALLS TO GCG PACKAGE FOR TRANSPORT TIME STEP 733 IN FLOW TIME STEP   1 STRESS PERIOD   1
     8 TOTAL ITERATIONS
     1 CALLS TO GCG PACKAGE FOR TRANSPORT TIME STEP 733 IN FLOW TIME STEP   1 STRESS PERIOD   1
     8 TOTAL ITERATIONS
 
 SOLVING FOR HEAD 


     2 CALLS TO PCG ROUTINE FOR TIME STEP   1 IN STRESS PERIOD    1
     9 TOTAL ITERATIONS

 MAXIMUM HEAD CHANGE FOR EACH ITERATION (1 INDICATES THE FIRST INNER ITERATION):

    HEAD CHANGE    HEAD CHANGE    HEAD CHANGE    HEAD CHANGE    HEAD CHANGE 
   LAYER,ROW,COL  LAYER,ROW,COL  LAYER,ROW,COL  LAYER,ROW,COL  LAYER,ROW,COL
 ---------------------------------------------------------------------------
  1 -0.1346E-01  0  0.3748E-02  0  0.3337E-02  0  0.1165E-01  0 -0.1218E-01
   ( 15,  1, 86)  ( 17,  1, 89)  (  8,  1, 12)  ( 11,  1, 52)  ( 11,  1, 52)
  0  0.1519E-02  0  0.1805E-02  0  0.6138E-03  1 -0.5409E-03
   ( 11,  1, 53)  ( 11,  1, 70)  ( 11,  1, 56)  ( 11,  1, 70)

 MAXIMUM RESIDUAL FOR EACH ITERATION (1 INDICATES THE FIRST INNER ITERATION):

    RESIDUAL       RESIDUAL       RESIDUAL       RESIDUAL       RESIDUAL    
   LAYER,ROW,COL  LAYER,ROW,COL  LAYER,ROW,COL  LAYER,ROW,COL  LAYER,ROW,COL
 ---------------------------------------------------------------------------
  1 -0.1335E+06  0  0.9354E+05  0  0.9265E+05  0  0.2988E+05  0   5578.    
   ( 21,  1, 89)  ( 19,  1, 89)  ( 19,  1, 89)  ( 19,  1, 89)  ( 17,  1, 87)
  0  -2826.      0  -2093.      0  -762.6      1  -660.6    
   ( 22,  1, 87)  ( 22,  1, 87)  ( 22,  1, 87)  ( 22,  1, 87)


 FLOW MODEL IS TRANSIENT
 FLOW MODEL CONTAINS CONSTANT-HEAD CELLS


 MAXIMUM STEPSIZE DURING WHICH ANY PARTICLE CANNOT MOVE MORE THAN ONE CELL
 =  13.22    (WHEN MIN. R.F.=1)  AT K=  17, I=   1, J=  90

 MAXIMUM STEPSIZE WHICH MEETS STABILITY CRITERION OF THE ADVECTION TERM
 (FOR PURE FINITE-DIFFERENCE OPTION, MIXELM=0) 
 =  8.005    (WHEN MIN. R.F.=1)  AT K=  16, I=   1, J=  90


 TOTAL NUMBER OF POINT SOURCES/SINKS PRESENT IN THE FLOW MODEL =    30

 MAXIMUM STEPSIZE WHICH MEETS STABILITY CRITERION OF THE SINK & SOURCE TERM
 =  12.17    (WHEN MIN. R.F.=1)  AT K=  17, I=   1, J=  91

 MAXIMUM STEPSIZE WHICH MEETS STABILITY CRITERION OF THE DISPERSION TERM
 =  4.371    (WHEN MIN. R.F.=1)  AT K=  17, I=   1, J=  90
     1 CALLS TO GCG PACKAGE FOR TRANSPORT TIME STEP 734 IN FLOW TIME STEP   1 STRESS PERIOD   1
     9 TOTAL ITERATIONS
     1 CALLS TO GCG PACKAGE FOR TRANSPORT TIME STEP 734 IN FLOW TIME STEP   1 STRESS PERIOD   1
     8 TOTAL ITERATIONS
 
 SOLVING FOR HEAD 


     2 CALLS TO PCG ROUTINE FOR TIME STEP   1 IN STRESS PERIOD    1
     9 TOTAL ITERATIONS

 MAXIMUM HEAD CHANGE FOR EACH ITERATION (1 INDICATES THE FIRST INNER ITERATION):

    HEAD CHANGE    HEAD CHANGE    HEAD CHANGE    HEAD CHANGE    HEAD CHANGE 
   LAYER,ROW,COL  LAYER,ROW,COL  LAYER,ROW,COL  LAYER,ROW,COL  LAYER,ROW,COL
 ---------------------------------------------------------------------------
  1  0.1345E-01  0 -0.3702E-02  0 -0.2706E-02  0 -0.7530E-02  0  0.8459E-02
   ( 15,  1, 86)  ( 17,  1, 89)  (  7,  1, 12)  ( 11,  1, 66)  (  7,  1, 46)
  0  0.1212E-02  0 -0.1053E-02  0 -0.9062E-03  1  0.7155E-03
   ( 11,  1, 49)  ( 11,  1, 66)  ( 11,  1, 59)  ( 11,  1, 66)

 MAXIMUM RESIDUAL FOR EACH ITERATION (1 INDICATES THE FIRST INNER ITERATION):

    RESIDUAL       RESIDUAL       RESIDUAL       RESIDUAL       RESIDUAL    
   LAYER,ROW,COL  LAYER,ROW,COL  LAYER,ROW,COL  LAYER,ROW,COL  LAYER,ROW,COL
 ---------------------------------------------------------------------------
  1  0.1317E+06  0 -0.9204E+05  0 -0.8791E+05  0 -0.3838E+05  0  -6050.    
   ( 21,  1, 89)  ( 19,  1, 89)  ( 19,  1, 89)  ( 19,  1, 89)  ( 17,  1, 87)
  0   2910.      0   2433.      0   849.7      1   716.3    
   ( 22,  1, 87)  ( 22,  1, 87)  ( 22,  1, 87)  ( 22,  1, 87)


 FLOW MODEL IS TRANSIENT
 FLOW MODEL CONTAINS CONSTANT-HEAD CELLS


 MAXIMUM STEPSIZE DURING WHICH ANY PARTICLE CANNOT MOVE MORE THAN ONE CELL
 =  12.86    (WHEN MIN. R.F.=1)  AT K=  17, I=   1, J=  90

 MAXIMUM STEPSIZE WHICH MEETS STABILITY CRITERION OF THE ADVECTION TERM
 (FOR PURE FINITE-DIFFERENCE OPTION, MIXELM=0) 
 =  8.036    (WHEN MIN. R.F.=1)  AT K=  16, I=   1, J=  90


 TOTAL NUMBER OF POINT SOURCES/SINKS PRESENT IN THE FLOW MODEL =    30

 MAXIMUM STEPSIZE WHICH MEETS STABILITY CRITERION OF THE SINK & SOURCE TERM
 =  12.20    (WHEN MIN. R.F.=1)  AT K=  17, I=   1, J=  91

 MAXIMUM STEPSIZE WHICH MEETS STABILITY CRITERION OF THE DISPERSION TERM
 =  4.035    (WHEN MIN. R.F.=1)  AT K=  17, I=   1, J=  90
     1 CALLS TO GCG PACKAGE FOR TRANSPORT TIME STEP 735 IN FLOW TIME STEP   1 STRESS PERIOD   1
     8 TOTAL ITERATIONS
  MAXIMUM CONCENTRATION CHANGES FOR EACH ITERATION:
  MAX. CHANGE LAYER,ROW,COL MAX. CHANGE LAYER,ROW,COL MAX. CHANGE LAYER,ROW,COL MAX. CHANGE LAYER,ROW,COL MAX. CHANGE LAYER,ROW,COL
 ------------------------------------------------------------------------------------------------------------------------------------
   0.5259E-01 ( 20,  1, 87)  0.4200E-02 ( 19,  1, 89)  0.2151E-02 ( 17,  1, 86)  0.4796E-03 ( 20,  1, 89)  0.9590E-04 ( 16,  1, 89)
   0.1971E-04 ( 20,  1, 89)  0.1809E-04 ( 16,  1, 90)  0.7627E-06 ( 17,  1, 90)
     1 CALLS TO GCG PACKAGE FOR TRANSPORT TIME STEP 735 IN FLOW TIME STEP   1 STRESS PERIOD   1
     8 TOTAL ITERATIONS
  MAXIMUM CONCENTRATION CHANGES FOR EACH ITERATION:
  MAX. CHANGE LAYER,ROW,COL MAX. CHANGE LAYER,ROW,COL MAX. CHANGE LAYER,ROW,COL MAX. CHANGE LAYER,ROW,COL MAX. CHANGE LAYER,ROW,COL
 ------------------------------------------------------------------------------------------------------------------------------------
   0.5699E-01 ( 20,  1, 87)  0.4627E-02 ( 19,  1, 89)  0.2132E-02 ( 18,  1, 86)  0.4460E-03 ( 20,  1, 89)  0.1050E-03 ( 16,  1, 89)
   0.1619E-04 ( 23,  1, 87)  0.1628E-04 ( 16,  1, 90)  0.8314E-06 ( 17,  1, 90)
 
 SOLVING FOR HEAD 


     2 CALLS TO PCG ROUTINE FOR TIME STEP   1 IN STRESS PERIOD    1
     9 TOTAL ITERATIONS

 MAXIMUM HEAD CHANGE FOR EACH ITERATION (1 INDICATES THE FIRST INNER ITERATION):

    HEAD CHANGE    HEAD CHANGE    HEAD CHANGE    HEAD CHANGE    HEAD CHANGE 
   LAYER,ROW,COL  LAYER,ROW,COL  LAYER,ROW,COL  LAYER,ROW,COL  LAYER,ROW,COL
 ---------------------------------------------------------------------------
  1 -0.1346E-01  0  0.3684E-02  0  0.2399E-02  0  0.1010E-01  0 -0.1153E-01
   ( 15,  1, 86)  ( 17,  1, 89)  (  8,  1, 12)  ( 11,  1, 50)  ( 11,  1, 50)
  0  0.2191E-02  0  0.1648E-02  0  0.6712E-03  1 -0.6683E-03
   ( 11,  1, 49)  ( 11,  1, 70)  ( 11,  1, 55)  ( 11,  1, 70)

 MAXIMUM RESIDUAL FOR EACH ITERATION (1 INDICATES THE FIRST INNER ITERATION):

    RESIDUAL       RESIDUAL       RESIDUAL       RESIDUAL       RESIDUAL    
   LAYER,ROW,COL  LAYER,ROW,COL  LAYER,ROW,COL  LAYER,ROW,COL  LAYER,ROW,COL
 ---------------------------------------------------------------------------
  1 -0.1338E+06  0  0.9454E+05  0  0.9310E+05  0  0.2262E+05  0   5005.    
   ( 21,  1, 89)  ( 19,  1, 89)  ( 19,  1, 89)  ( 19,  1, 89)  ( 17,  1, 87)
  0  -2808.      0  -2354.      0  -903.4      1  -787.2    
   ( 22,  1, 87)  ( 22,  1, 87)  ( 22,  1, 87)  ( 22,  1, 87)


 FLOW MODEL IS TRANSIENT
 FLOW MODEL CONTAINS CONSTANT-HEAD CELLS


 MAXIMUM STEPSIZE DURING WHICH ANY PARTICLE CANNOT MOVE MORE THAN ONE CELL
 =  13.21    (WHEN MIN. R.F.=1)  AT K=  17, I=   1, J=  90

 MAXIMUM STEPSIZE WHICH MEETS STABILITY CRITERION OF THE ADVECTION TERM
 (FOR PURE FINITE-DIFFERENCE OPTION, MIXELM=0) 
 =  8.001    (WHEN MIN. R.F.=1)  AT K=  16, I=   1, J=  90


 TOTAL NUMBER OF POINT SOURCES/SINKS PRESENT IN THE FLOW MODEL =    30

 MAXIMUM STEPSIZE WHICH MEETS STABILITY CRITERION OF THE SINK & SOURCE TERM
 =  12.17    (WHEN MIN. R.F.=1)  AT K=  17, I=   1, J=  91

 MAXIMUM STEPSIZE WHICH MEETS STABILITY CRITERION OF THE DISPERSION TERM
 =  4.360    (WHEN MIN. R.F.=1)  AT K=  17, I=   1, J=  90
     1 CALLS TO GCG PACKAGE FOR TRANSPORT TIME STEP 736 IN FLOW TIME STEP   1 STRESS PERIOD   1
     9 TOTAL ITERATIONS
     1 CALLS TO GCG PACKAGE FOR TRANSPORT TIME STEP 736 IN FLOW TIME STEP   1 STRESS PERIOD   1
     8 TOTAL ITERATIONS
 
 SOLVING FOR HEAD 


     2 CALLS TO PCG ROUTINE FOR TIME STEP   1 IN STRESS PERIOD    1
     9 TOTAL ITERATIONS

 MAXIMUM HEAD CHANGE FOR EACH ITERATION (1 INDICATES THE FIRST INNER ITERATION):

    HEAD CHANGE    HEAD CHANGE    HEAD CHANGE    HEAD CHANGE    HEAD CHANGE 
   LAYER,ROW,COL  LAYER,ROW,COL  LAYER,ROW,COL  LAYER,ROW,COL  LAYER,ROW,COL
 ---------------------------------------------------------------------------
  1  0.1353E-01  0 -0.3663E-02  0 -0.2303E-02  0 -0.8547E-02  0  0.7987E-02
   ( 15,  1, 86)  ( 17,  1, 89)  (  7,  1, 12)  ( 11,  1, 66)  ( 10,  1, 50)
  0 -0.1123E-02  0 -0.1043E-02  0 -0.9898E-03  1  0.7002E-03
   ( 11,  1, 60)  ( 11,  1, 66)  ( 11,  1, 58)  ( 11,  1, 56)

 MAXIMUM RESIDUAL FOR EACH ITERATION (1 INDICATES THE FIRST INNER ITERATION):

    RESIDUAL       RESIDUAL       RESIDUAL       RESIDUAL       RESIDUAL    
   LAYER,ROW,COL  LAYER,ROW,COL  LAYER,ROW,COL  LAYER,ROW,COL  LAYER,ROW,COL
 ---------------------------------------------------------------------------
  1  0.1318E+06  0 -0.9218E+05  0 -0.9047E+05  0 -0.3618E+05  0  -5931.    
   ( 21,  1, 89)  ( 19,  1, 89)  ( 19,  1, 89)  ( 19,  1, 89)  ( 17,  1, 87)
  0   2902.      0   2483.      0   849.9      1   719.4    
   ( 22,  1, 87)  ( 22,  1, 87)  ( 22,  1, 87)  ( 22,  1, 87)


 FLOW MODEL IS TRANSIENT
 FLOW MODEL CONTAINS CONSTANT-HEAD CELLS


 MAXIMUM STEPSIZE DURING WHICH ANY PARTICLE CANNOT MOVE MORE THAN ONE CELL
 =  12.87    (WHEN MIN. R.F.=1)  AT K=  17, I=   1, J=  90

 MAXIMUM STEPSIZE WHICH MEETS STABILITY CRITERION OF THE ADVECTION TERM
 (FOR PURE FINITE-DIFFERENCE OPTION, MIXELM=0) 
 =  8.036    (WHEN MIN. R.F.=1)  AT K=  16, I=   1, J=  90


 TOTAL NUMBER OF POINT SOURCES/SINKS PRESENT IN THE FLOW MODEL =    30

 MAXIMUM STEPSIZE WHICH MEETS STABILITY CRITERION OF THE SINK & SOURCE TERM
 =  12.21    (WHEN MIN. R.F.=1)  AT K=  17, I=   1, J=  91

 MAXIMUM STEPSIZE WHICH MEETS STABILITY CRITERION OF THE DISPERSION TERM
 =  4.036    (WHEN MIN. R.F.=1)  AT K=  17, I=   1, J=  90
     1 CALLS TO GCG PACKAGE FOR TRANSPORT TIME STEP 737 IN FLOW TIME STEP   1 STRESS PERIOD   1
     8 TOTAL ITERATIONS
     1 CALLS TO GCG PACKAGE FOR TRANSPORT TIME STEP 737 IN FLOW TIME STEP   1 STRESS PERIOD   1
     8 TOTAL ITERATIONS
 
 SOLVING FOR HEAD 


     2 CALLS TO PCG ROUTINE FOR TIME STEP   1 IN STRESS PERIOD    1
     9 TOTAL ITERATIONS

 MAXIMUM HEAD CHANGE FOR EACH ITERATION (1 INDICATES THE FIRST INNER ITERATION):

    HEAD CHANGE    HEAD CHANGE    HEAD CHANGE    HEAD CHANGE    HEAD CHANGE 
   LAYER,ROW,COL  LAYER,ROW,COL  LAYER,ROW,COL  LAYER,ROW,COL  LAYER,ROW,COL
 ---------------------------------------------------------------------------
  1 -0.1344E-01  0  0.3663E-02  0  0.2339E-02  0 -0.1210E-01  0  0.1264E-01
   ( 15,  1, 86)  ( 17,  1, 89)  (  8,  1, 12)  ( 11,  1, 56)  ( 11,  1, 56)
  0 -0.2208E-02  0  0.1305E-02  0  0.4949E-03  1 -0.5869E-03
   ( 11,  1, 59)  ( 11,  1, 70)  ( 11,  1, 60)  ( 11,  1, 70)

 MAXIMUM RESIDUAL FOR EACH ITERATION (1 INDICATES THE FIRST INNER ITERATION):

    RESIDUAL       RESIDUAL       RESIDUAL       RESIDUAL       RESIDUAL    
   LAYER,ROW,COL  LAYER,ROW,COL  LAYER,ROW,COL  LAYER,ROW,COL  LAYER,ROW,COL
 ---------------------------------------------------------------------------
  1 -0.1326E+06  0  0.9350E+05  0  0.9187E+05  0  0.2223E+05  0   5004.    
   ( 21,  1, 89)  ( 19,  1, 89)  ( 19,  1, 89)  ( 19,  1, 89)  ( 17,  1, 87)
  0  -2831.      0  -2448.      0  -977.2      1  -857.5    
   ( 22,  1, 87)  ( 22,  1, 87)  ( 22,  1, 87)  ( 22,  1, 87)


 FLOW MODEL IS TRANSIENT
 FLOW MODEL CONTAINS CONSTANT-HEAD CELLS


 MAXIMUM STEPSIZE DURING WHICH ANY PARTICLE CANNOT MOVE MORE THAN ONE CELL
 =  13.21    (WHEN MIN. R.F.=1)  AT K=  17, I=   1, J=  90

 MAXIMUM STEPSIZE WHICH MEETS STABILITY CRITERION OF THE ADVECTION TERM
 (FOR PURE FINITE-DIFFERENCE OPTION, MIXELM=0) 
 =  8.001    (WHEN MIN. R.F.=1)  AT K=  16, I=   1, J=  90


 TOTAL NUMBER OF POINT SOURCES/SINKS PRESENT IN THE FLOW MODEL =    30

 MAXIMUM STEPSIZE WHICH MEETS STABILITY CRITERION OF THE SINK & SOURCE TERM
 =  12.17    (WHEN MIN. R.F.=1)  AT K=  17, I=   1, J=  91

 MAXIMUM STEPSIZE WHICH MEETS STABILITY CRITERION OF THE DISPERSION TERM
 =  4.356    (WHEN MIN. R.F.=1)  AT K=  17, I=   1, J=  90
     1 CALLS TO GCG PACKAGE FOR TRANSPORT TIME STEP 738 IN FLOW TIME STEP   1 STRESS PERIOD   1
     9 TOTAL ITERATIONS
     1 CALLS TO GCG PACKAGE FOR TRANSPORT TIME STEP 738 IN FLOW TIME STEP   1 STRESS PERIOD   1
     8 TOTAL ITERATIONS
 
 SOLVING FOR HEAD 


     2 CALLS TO PCG ROUTINE FOR TIME STEP   1 IN STRESS PERIOD    1
     8 TOTAL ITERATIONS

 MAXIMUM HEAD CHANGE FOR EACH ITERATION (1 INDICATES THE FIRST INNER ITERATION):

    HEAD CHANGE    HEAD CHANGE    HEAD CHANGE    HEAD CHANGE    HEAD CHANGE 
   LAYER,ROW,COL  LAYER,ROW,COL  LAYER,ROW,COL  LAYER,ROW,COL  LAYER,ROW,COL
 ---------------------------------------------------------------------------
  1  0.1351E-01  0 -0.3654E-02  0 -0.2367E-02  0 -0.7906E-02  0  0.8025E-02
   ( 15,  1, 86)  ( 17,  1, 89)  (  7,  1, 12)  ( 11,  1, 66)  (  9,  1, 47)
  0 -0.1054E-02  0  0.8933E-03  1 -0.9002E-03
   ( 11,  1, 60)  ( 11,  1, 59)  ( 11,  1, 59)

 MAXIMUM RESIDUAL FOR EACH ITERATION (1 INDICATES THE FIRST INNER ITERATION):

    RESIDUAL       RESIDUAL       RESIDUAL       RESIDUAL       RESIDUAL    
   LAYER,ROW,COL  LAYER,ROW,COL  LAYER,ROW,COL  LAYER,ROW,COL  LAYER,ROW,COL
 ---------------------------------------------------------------------------
  1  0.1316E+06  0 -0.9232E+05  0 -0.9091E+05  0 -0.3551E+05  0  -5891.    
   ( 21,  1, 89)  ( 19,  1, 89)  ( 19,  1, 89)  ( 19,  1, 89)  ( 17,  1, 87)
  0   2889.      0   2464.      1   2089.    
   ( 22,  1, 87)  ( 22,  1, 87)  ( 22,  1, 87)


 FLOW MODEL IS TRANSIENT
 FLOW MODEL CONTAINS CONSTANT-HEAD CELLS


 MAXIMUM STEPSIZE DURING WHICH ANY PARTICLE CANNOT MOVE MORE THAN ONE CELL
 =  12.86    (WHEN MIN. R.F.=1)  AT K=  17, I=   1, J=  90

 MAXIMUM STEPSIZE WHICH MEETS STABILITY CRITERION OF THE ADVECTION TERM
 (FOR PURE FINITE-DIFFERENCE OPTION, MIXELM=0) 
 =  8.031    (WHEN MIN. R.F.=1)  AT K=  16, I=   1, J=  90


 TOTAL NUMBER OF POINT SOURCES/SINKS PRESENT IN THE FLOW MODEL =    30

 MAXIMUM STEPSIZE WHICH MEETS STABILITY CRITERION OF THE SINK & SOURCE TERM
 =  12.20    (WHEN MIN. R.F.=1)  AT K=  17, I=   1, J=  91

 MAXIMUM STEPSIZE WHICH MEETS STABILITY CRITERION OF THE DISPERSION TERM
 =  4.032    (WHEN MIN. R.F.=1)  AT K=  17, I=   1, J=  90
     1 CALLS TO GCG PACKAGE FOR TRANSPORT TIME STEP 739 IN FLOW TIME STEP   1 STRESS PERIOD   1
     8 TOTAL ITERATIONS
     1 CALLS TO GCG PACKAGE FOR TRANSPORT TIME STEP 739 IN FLOW TIME STEP   1 STRESS PERIOD   1
     8 TOTAL ITERATIONS
 
 SOLVING FOR HEAD 


     2 CALLS TO PCG ROUTINE FOR TIME STEP   1 IN STRESS PERIOD    1
     8 TOTAL ITERATIONS

 MAXIMUM HEAD CHANGE FOR EACH ITERATION (1 INDICATES THE FIRST INNER ITERATION):

    HEAD CHANGE    HEAD CHANGE    HEAD CHANGE    HEAD CHANGE    HEAD CHANGE 
   LAYER,ROW,COL  LAYER,ROW,COL  LAYER,ROW,COL  LAYER,ROW,COL  LAYER,ROW,COL
 ---------------------------------------------------------------------------
  1 -0.1374E-01  0 -0.7242E-02  0  0.3922E-02  0  0.1736E-01  0 -0.1459E-01
   ( 15,  1, 86)  ( 11,  1, 59)  (  8,  1, 12)  ( 11,  1, 59)  ( 11,  1, 59)
  0  0.2167E-02  0 -0.8560E-03  1  0.7899E-03
   ( 11,  1, 65)  (  7,  1, 41)  ( 11,  1, 70)

 MAXIMUM RESIDUAL FOR EACH ITERATION (1 INDICATES THE FIRST INNER ITERATION):

    RESIDUAL       RESIDUAL       RESIDUAL       RESIDUAL       RESIDUAL    
   LAYER,ROW,COL  LAYER,ROW,COL  LAYER,ROW,COL  LAYER,ROW,COL  LAYER,ROW,COL
 ---------------------------------------------------------------------------
  1 -0.1342E+06  0  0.9505E+05  0  0.9426E+05  0  0.5774E+05  0   5384.    
   ( 21,  1, 89)  ( 19,  1, 89)  ( 19,  1, 89)  ( 19,  1, 89)  ( 17,  1, 87)
  0  -2780.      0  -2622.      1  -1716.    
   ( 22,  1, 87)  ( 22,  1, 87)  ( 22,  1, 87)


 FLOW MODEL IS TRANSIENT
 FLOW MODEL CONTAINS CONSTANT-HEAD CELLS


 MAXIMUM STEPSIZE DURING WHICH ANY PARTICLE CANNOT MOVE MORE THAN ONE CELL
 =  13.16    (WHEN MIN. R.F.=1)  AT K=  17, I=   1, J=  90

 MAXIMUM STEPSIZE WHICH MEETS STABILITY CRITERION OF THE ADVECTION TERM
 (FOR PURE FINITE-DIFFERENCE OPTION, MIXELM=0) 
 =  7.979    (WHEN MIN. R.F.=1)  AT K=  16, I=   1, J=  90


 TOTAL NUMBER OF POINT SOURCES/SINKS PRESENT IN THE FLOW MODEL =    30

 MAXIMUM STEPSIZE WHICH MEETS STABILITY CRITERION OF THE SINK & SOURCE TERM
 =  12.09    (WHEN MIN. R.F.=1)  AT K=  17, I=   1, J=  91

 MAXIMUM STEPSIZE WHICH MEETS STABILITY CRITERION OF THE DISPERSION TERM
 =  4.337    (WHEN MIN. R.F.=1)  AT K=  17, I=   1, J=  90
     1 CALLS TO GCG PACKAGE FOR TRANSPORT TIME STEP 740 IN FLOW TIME STEP   1 STRESS PERIOD   1
     8 TOTAL ITERATIONS
  MAXIMUM CONCENTRATION CHANGES FOR EACH ITERATION:
  MAX. CHANGE LAYER,ROW,COL MAX. CHANGE LAYER,ROW,COL MAX. CHANGE LAYER,ROW,COL MAX. CHANGE LAYER,ROW,COL MAX. CHANGE LAYER,ROW,COL
 ------------------------------------------------------------------------------------------------------------------------------------
   0.4856E-01 ( 20,  1, 87)  0.3276E-02 ( 19,  1, 87)  0.2106E-02 ( 18,  1, 87)  0.2116E-03 ( 16,  1, 88)  0.1444E-03 ( 16,  1, 89)
   0.2654E-04 ( 16,  1, 90)  0.3255E-05 ( 21,  1, 78)  0.8958E-06 ( 15,  1, 89)
     1 CALLS TO GCG PACKAGE FOR TRANSPORT TIME STEP 740 IN FLOW TIME STEP   1 STRESS PERIOD   1
     8 TOTAL ITERATIONS
  MAXIMUM CONCENTRATION CHANGES FOR EACH ITERATION:
  MAX. CHANGE LAYER,ROW,COL MAX. CHANGE LAYER,ROW,COL MAX. CHANGE LAYER,ROW,COL MAX. CHANGE LAYER,ROW,COL MAX. CHANGE LAYER,ROW,COL
 ------------------------------------------------------------------------------------------------------------------------------------
   0.5347E-01 ( 20,  1, 87)  0.3530E-02 ( 19,  1, 87)  0.2263E-02 ( 18,  1, 87)  0.2171E-03 ( 16,  1, 88)  0.1343E-03 ( 17,  1, 89)
   0.3261E-04 ( 16,  1, 90)  0.4765E-05 ( 17,  1, 90)  0.5727E-06 ( 16,  1, 89)



 >>>>>>>>>>>>>>>>>>>>>>>>>>>>>>>>>>>>>>>>>>>>>>>>>>>>>>>FOR COMPONENT NO. 01<<<<<<<<<<<<<<<<<<<<<<<<<<<<<<<<<<<<<<<<<<<<<<<<<<<<<<<


                                            -------------------------------------------
                                                      TRANSPORT STEP NO.  740
                                            -------------------------------------------

 TOTAL ELAPSED TIME SINCE BEGINNING OF SIMULATION =   37000.00    D   
 .....................................................................

                     CUMMULATIVE MASS BUDGETS AT END OF TRANSPORT STEP  740, TIME STEP    1, STRESS PERIOD    1
                     ------------------------------------------------------------------------------------------

                                                             IN                           OUT
                                                      ----------------             ----------------
                               CONSTANT CONCENTRATION:    0.000000                    0.000000    
                                        CONSTANT HEAD:   0.1464121E+10              -0.1463910E+10
                                                WELLS:    0.000000                    0.000000    
                                             RECHARGE:    0.000000                    0.000000    
                               1ST/0TH ORDER REACTION:    0.000000                    0.000000    
                                MASS STORAGE (SOLUTE):   0.2046830E+09              -0.2048942E+09
                            ---------------------------------------------------------------------------
                                              [TOTAL]:   0.1668805E+10 KG           -0.1668806E+10 KG  

                                                          NET (IN - OUT):   -253.8665    
                                                   DISCREPANCY (PERCENT):  -0.1521247E-04



 >>>>>>>>>>>>>>>>>>>>>>>>>>>>>>>>>>>>>>>>>>>>>>>>>>>>>>>FOR COMPONENT NO. 02<<<<<<<<<<<<<<<<<<<<<<<<<<<<<<<<<<<<<<<<<<<<<<<<<<<<<<<


                                            -------------------------------------------
                                                      TRANSPORT STEP NO.  740
                                            -------------------------------------------

 TOTAL ELAPSED TIME SINCE BEGINNING OF SIMULATION =   37000.00    D   
 .....................................................................

                     CUMMULATIVE MASS BUDGETS AT END OF TRANSPORT STEP  740, TIME STEP    1, STRESS PERIOD    1
                     ------------------------------------------------------------------------------------------

                                                             IN                           OUT
                                                      ----------------             ----------------
                               CONSTANT CONCENTRATION:    0.000000                    0.000000    
                                        CONSTANT HEAD:    0.000000                  -0.2880999E+12
                                                WELLS:    0.000000                    0.000000    
                                             RECHARGE:    0.000000                    0.000000    
                               1ST/0TH ORDER REACTION:   0.6123500E+12                0.000000    
                                MASS STORAGE (SOLUTE):   0.1057681E+12              -0.4300183E+12
                            ---------------------------------------------------------------------------
                                              [TOTAL]:   0.7181195E+12 KG           -0.7181196E+12 KG  

                                                          NET (IN - OUT):   -97541.94    
                                                   DISCREPANCY (PERCENT):  -0.1358297E-04
 
 SOLVING FOR HEAD 


     2 CALLS TO PCG ROUTINE FOR TIME STEP   1 IN STRESS PERIOD    1
    10 TOTAL ITERATIONS

 MAXIMUM HEAD CHANGE FOR EACH ITERATION (1 INDICATES THE FIRST INNER ITERATION):

    HEAD CHANGE    HEAD CHANGE    HEAD CHANGE    HEAD CHANGE    HEAD CHANGE 
   LAYER,ROW,COL  LAYER,ROW,COL  LAYER,ROW,COL  LAYER,ROW,COL  LAYER,ROW,COL
 ---------------------------------------------------------------------------
  1  0.1373E-01  0  0.9286E-02  0 -0.3464E-02  0 -0.9098E-02  0  0.6630E-02
   ( 15,  1, 86)  ( 11,  1, 70)  (  7,  1, 12)  ( 11,  1, 69)  ( 11,  1, 66)
  0 -0.4793E-02  0 -0.1420E-02  0 -0.1078E-02  0 -0.8449E-03  1  0.3118E-03
   ( 11,  1, 56)  ( 11,  1, 69)  ( 11,  1, 60)  ( 11,  1, 65)  ( 11,  1, 64)

 MAXIMUM RESIDUAL FOR EACH ITERATION (1 INDICATES THE FIRST INNER ITERATION):

    RESIDUAL       RESIDUAL       RESIDUAL       RESIDUAL       RESIDUAL    
   LAYER,ROW,COL  LAYER,ROW,COL  LAYER,ROW,COL  LAYER,ROW,COL  LAYER,ROW,COL
 ---------------------------------------------------------------------------
  1  0.1350E+06  0 -0.9640E+05  0 -0.9542E+05  0 -0.8076E+05  0   6789.    
   ( 21,  1, 89)  ( 19,  1, 89)  ( 19,  1, 89)  ( 19,  1, 89)  ( 17,  1, 88)
  0   3147.      0   2519.      0   1769.      0   399.7      1  -340.2    
   ( 17,  1, 88)  ( 22,  1, 87)  ( 22,  1, 87)  ( 22,  1, 87)  ( 18,  1, 90)


 FLOW MODEL IS TRANSIENT
 FLOW MODEL CONTAINS CONSTANT-HEAD CELLS


 MAXIMUM STEPSIZE DURING WHICH ANY PARTICLE CANNOT MOVE MORE THAN ONE CELL
 =  12.87    (WHEN MIN. R.F.=1)  AT K=  17, I=   1, J=  90

 MAXIMUM STEPSIZE WHICH MEETS STABILITY CRITERION OF THE ADVECTION TERM
 (FOR PURE FINITE-DIFFERENCE OPTION, MIXELM=0) 
 =  8.042    (WHEN MIN. R.F.=1)  AT K=  16, I=   1, J=  90


 TOTAL NUMBER OF POINT SOURCES/SINKS PRESENT IN THE FLOW MODEL =    30

 MAXIMUM STEPSIZE WHICH MEETS STABILITY CRITERION OF THE SINK & SOURCE TERM
 =  12.20    (WHEN MIN. R.F.=1)  AT K=  17, I=   1, J=  91

 MAXIMUM STEPSIZE WHICH MEETS STABILITY CRITERION OF THE DISPERSION TERM
 =  4.029    (WHEN MIN. R.F.=1)  AT K=  17, I=   1, J=  90
     1 CALLS TO GCG PACKAGE FOR TRANSPORT TIME STEP 741 IN FLOW TIME STEP   1 STRESS PERIOD   1
     8 TOTAL ITERATIONS
     1 CALLS TO GCG PACKAGE FOR TRANSPORT TIME STEP 741 IN FLOW TIME STEP   1 STRESS PERIOD   1
     8 TOTAL ITERATIONS
 
 SOLVING FOR HEAD 


     2 CALLS TO PCG ROUTINE FOR TIME STEP   1 IN STRESS PERIOD    1
     8 TOTAL ITERATIONS

 MAXIMUM HEAD CHANGE FOR EACH ITERATION (1 INDICATES THE FIRST INNER ITERATION):

    HEAD CHANGE    HEAD CHANGE    HEAD CHANGE    HEAD CHANGE    HEAD CHANGE 
   LAYER,ROW,COL  LAYER,ROW,COL  LAYER,ROW,COL  LAYER,ROW,COL  LAYER,ROW,COL
 ---------------------------------------------------------------------------
  1 -0.1341E-01  0  0.3784E-02  0  0.2448E-02  0  0.5726E-02  0 -0.7160E-02
   ( 15,  1, 86)  ( 17,  1, 89)  (  8,  1, 12)  ( 11,  1, 57)  ( 11,  1, 57)
  0  0.2070E-02  0  0.7885E-03  1 -0.5858E-03
   ( 11,  1, 53)  ( 11,  1, 69)  ( 11,  1, 49)

 MAXIMUM RESIDUAL FOR EACH ITERATION (1 INDICATES THE FIRST INNER ITERATION):

    RESIDUAL       RESIDUAL       RESIDUAL       RESIDUAL       RESIDUAL    
   LAYER,ROW,COL  LAYER,ROW,COL  LAYER,ROW,COL  LAYER,ROW,COL  LAYER,ROW,COL
 ---------------------------------------------------------------------------
  1 -0.1304E+06  0  0.9162E+05  0  0.9038E+05  0  0.1585E+05  0   4688.    
   ( 21,  1, 89)  ( 19,  1, 89)  ( 19,  1, 89)  ( 19,  1, 89)  ( 17,  1, 87)
  0  -2842.      0  -2118.      1  -1834.    
   ( 22,  1, 87)  ( 22,  1, 87)  ( 22,  1, 87)


 FLOW MODEL IS TRANSIENT
 FLOW MODEL CONTAINS CONSTANT-HEAD CELLS


 MAXIMUM STEPSIZE DURING WHICH ANY PARTICLE CANNOT MOVE MORE THAN ONE CELL
 =  13.26    (WHEN MIN. R.F.=1)  AT K=  17, I=   1, J=  90

 MAXIMUM STEPSIZE WHICH MEETS STABILITY CRITERION OF THE ADVECTION TERM
 (FOR PURE FINITE-DIFFERENCE OPTION, MIXELM=0) 
 =  8.019    (WHEN MIN. R.F.=1)  AT K=  16, I=   1, J=  90


 TOTAL NUMBER OF POINT SOURCES/SINKS PRESENT IN THE FLOW MODEL =    30

 MAXIMUM STEPSIZE WHICH MEETS STABILITY CRITERION OF THE SINK & SOURCE TERM
 =  12.19    (WHEN MIN. R.F.=1)  AT K=  17, I=   1, J=  91

 MAXIMUM STEPSIZE WHICH MEETS STABILITY CRITERION OF THE DISPERSION TERM
 =  4.386    (WHEN MIN. R.F.=1)  AT K=  17, I=   1, J=  90
     1 CALLS TO GCG PACKAGE FOR TRANSPORT TIME STEP 742 IN FLOW TIME STEP   1 STRESS PERIOD   1
     7 TOTAL ITERATIONS
     1 CALLS TO GCG PACKAGE FOR TRANSPORT TIME STEP 742 IN FLOW TIME STEP   1 STRESS PERIOD   1
     8 TOTAL ITERATIONS
 
 SOLVING FOR HEAD 


     2 CALLS TO PCG ROUTINE FOR TIME STEP   1 IN STRESS PERIOD    1
     9 TOTAL ITERATIONS

 MAXIMUM HEAD CHANGE FOR EACH ITERATION (1 INDICATES THE FIRST INNER ITERATION):

    HEAD CHANGE    HEAD CHANGE    HEAD CHANGE    HEAD CHANGE    HEAD CHANGE 
   LAYER,ROW,COL  LAYER,ROW,COL  LAYER,ROW,COL  LAYER,ROW,COL  LAYER,ROW,COL
 ---------------------------------------------------------------------------
  1  0.1356E-01  0 -0.3941E-02  0 -0.3238E-02  0  0.9791E-02  0  0.9086E-02
   ( 15,  1, 86)  ( 17,  1, 89)  (  8,  1, 12)  ( 11,  1, 35)  (  9,  1, 50)
  0  0.3254E-02  0 -0.1528E-02  0 -0.6692E-03  1  0.5099E-03
   ( 11,  1, 53)  ( 11,  1, 53)  ( 11,  1, 70)  ( 11,  1, 70)

 MAXIMUM RESIDUAL FOR EACH ITERATION (1 INDICATES THE FIRST INNER ITERATION):

    RESIDUAL       RESIDUAL       RESIDUAL       RESIDUAL       RESIDUAL    
   LAYER,ROW,COL  LAYER,ROW,COL  LAYER,ROW,COL  LAYER,ROW,COL  LAYER,ROW,COL
 ---------------------------------------------------------------------------
  1  0.1345E+06  0 -0.9500E+05  0 -0.9406E+05  0 -0.4881E+05  0  -5964.    
   ( 21,  1, 89)  ( 19,  1, 89)  ( 19,  1, 89)  ( 19,  1, 89)  ( 17,  1, 87)
  0   2750.      0   2584.      0   971.1      1   872.6    
   ( 22,  1, 87)  ( 22,  1, 87)  ( 22,  1, 87)  ( 22,  1, 87)


 FLOW MODEL IS TRANSIENT
 FLOW MODEL CONTAINS CONSTANT-HEAD CELLS


 MAXIMUM STEPSIZE DURING WHICH ANY PARTICLE CANNOT MOVE MORE THAN ONE CELL
 =  12.92    (WHEN MIN. R.F.=1)  AT K=  17, I=   1, J=  90

 MAXIMUM STEPSIZE WHICH MEETS STABILITY CRITERION OF THE ADVECTION TERM
 (FOR PURE FINITE-DIFFERENCE OPTION, MIXELM=0) 
 =  8.061    (WHEN MIN. R.F.=1)  AT K=  16, I=   1, J=  90


 TOTAL NUMBER OF POINT SOURCES/SINKS PRESENT IN THE FLOW MODEL =    30

 MAXIMUM STEPSIZE WHICH MEETS STABILITY CRITERION OF THE SINK & SOURCE TERM
 =  12.28    (WHEN MIN. R.F.=1)  AT K=  17, I=   1, J=  91

 MAXIMUM STEPSIZE WHICH MEETS STABILITY CRITERION OF THE DISPERSION TERM
 =  4.053    (WHEN MIN. R.F.=1)  AT K=  17, I=   1, J=  90
     1 CALLS TO GCG PACKAGE FOR TRANSPORT TIME STEP 743 IN FLOW TIME STEP   1 STRESS PERIOD   1
     8 TOTAL ITERATIONS
     1 CALLS TO GCG PACKAGE FOR TRANSPORT TIME STEP 743 IN FLOW TIME STEP   1 STRESS PERIOD   1
     8 TOTAL ITERATIONS
 
 SOLVING FOR HEAD 


     2 CALLS TO PCG ROUTINE FOR TIME STEP   1 IN STRESS PERIOD    1
    10 TOTAL ITERATIONS

 MAXIMUM HEAD CHANGE FOR EACH ITERATION (1 INDICATES THE FIRST INNER ITERATION):

    HEAD CHANGE    HEAD CHANGE    HEAD CHANGE    HEAD CHANGE    HEAD CHANGE 
   LAYER,ROW,COL  LAYER,ROW,COL  LAYER,ROW,COL  LAYER,ROW,COL  LAYER,ROW,COL
 ---------------------------------------------------------------------------
  1 -0.1366E-01  0  0.4000E-02  0  0.3420E-02  0  0.8748E-02  0 -0.1023E-01
   ( 15,  1, 86)  ( 17,  1, 89)  (  8,  1, 12)  ( 11,  1, 54)  ( 11,  1, 54)
  0  0.1956E-02  0  0.1903E-02  0 -0.1303E-02  0 -0.3783E-03  1  0.2756E-03
   ( 11,  1, 53)  ( 11,  1, 70)  ( 11,  1, 70)  ( 11,  1, 70)  ( 11,  1, 70)

 MAXIMUM RESIDUAL FOR EACH ITERATION (1 INDICATES THE FIRST INNER ITERATION):

    RESIDUAL       RESIDUAL       RESIDUAL       RESIDUAL       RESIDUAL    
   LAYER,ROW,COL  LAYER,ROW,COL  LAYER,ROW,COL  LAYER,ROW,COL  LAYER,ROW,COL
 ---------------------------------------------------------------------------
  1 -0.1367E+06  0  0.9704E+05  0  0.9612E+05  0  0.2084E+05  0   5047.    
   ( 21,  1, 89)  ( 19,  1, 89)  ( 19,  1, 89)  ( 19,  1, 89)  ( 17,  1, 87)
  0  -2844.      0  -1600.      0  -616.6      0   313.1      1   275.9    
   ( 22,  1, 87)  ( 22,  1, 87)  ( 22,  1, 87)  ( 19,  1, 90)  ( 18,  1, 90)


 FLOW MODEL IS TRANSIENT
 FLOW MODEL CONTAINS CONSTANT-HEAD CELLS


 MAXIMUM STEPSIZE DURING WHICH ANY PARTICLE CANNOT MOVE MORE THAN ONE CELL
 =  13.23    (WHEN MIN. R.F.=1)  AT K=  17, I=   1, J=  90

 MAXIMUM STEPSIZE WHICH MEETS STABILITY CRITERION OF THE ADVECTION TERM
 (FOR PURE FINITE-DIFFERENCE OPTION, MIXELM=0) 
 =  8.008    (WHEN MIN. R.F.=1)  AT K=  16, I=   1, J=  90


 TOTAL NUMBER OF POINT SOURCES/SINKS PRESENT IN THE FLOW MODEL =    30

 MAXIMUM STEPSIZE WHICH MEETS STABILITY CRITERION OF THE SINK & SOURCE TERM
 =  12.19    (WHEN MIN. R.F.=1)  AT K=  17, I=   1, J=  91

 MAXIMUM STEPSIZE WHICH MEETS STABILITY CRITERION OF THE DISPERSION TERM
 =  4.371    (WHEN MIN. R.F.=1)  AT K=  17, I=   1, J=  90
     1 CALLS TO GCG PACKAGE FOR TRANSPORT TIME STEP 744 IN FLOW TIME STEP   1 STRESS PERIOD   1
     7 TOTAL ITERATIONS
     1 CALLS TO GCG PACKAGE FOR TRANSPORT TIME STEP 744 IN FLOW TIME STEP   1 STRESS PERIOD   1
     8 TOTAL ITERATIONS
 
 SOLVING FOR HEAD 


     2 CALLS TO PCG ROUTINE FOR TIME STEP   1 IN STRESS PERIOD    1
     9 TOTAL ITERATIONS

 MAXIMUM HEAD CHANGE FOR EACH ITERATION (1 INDICATES THE FIRST INNER ITERATION):

    HEAD CHANGE    HEAD CHANGE    HEAD CHANGE    HEAD CHANGE    HEAD CHANGE 
   LAYER,ROW,COL  LAYER,ROW,COL  LAYER,ROW,COL  LAYER,ROW,COL  LAYER,ROW,COL
 ---------------------------------------------------------------------------
  1  0.1329E-01  0 -0.3579E-02  0  0.4630E-02  0 -0.5650E-02  0 -0.5359E-02
   ( 15,  1, 86)  ( 17,  1, 89)  (  7,  1, 12)  (  8,  1, 12)  (  9,  1, 47)
  0  0.1812E-02  0 -0.2056E-02  0  0.7749E-03  1  0.4600E-03
   ( 10,  1, 50)  ( 11,  1, 70)  ( 11,  1, 70)  ( 11,  1, 49)

 MAXIMUM RESIDUAL FOR EACH ITERATION (1 INDICATES THE FIRST INNER ITERATION):

    RESIDUAL       RESIDUAL       RESIDUAL       RESIDUAL       RESIDUAL    
   LAYER,ROW,COL  LAYER,ROW,COL  LAYER,ROW,COL  LAYER,ROW,COL  LAYER,ROW,COL
 ---------------------------------------------------------------------------
  1  0.1346E+06  0 -0.9459E+05  0 -0.7296E+05  0 -0.1631E+05  0  -5146.    
   ( 21,  1, 89)  ( 19,  1, 89)  ( 19,  1, 89)  ( 19,  1, 89)  ( 17,  1, 87)
  0   2900.      0   1952.      0   705.8      1   601.2    
   ( 22,  1, 87)  ( 22,  1, 87)  ( 22,  1, 87)  ( 22,  1, 87)


 FLOW MODEL IS TRANSIENT
 FLOW MODEL CONTAINS CONSTANT-HEAD CELLS


 MAXIMUM STEPSIZE DURING WHICH ANY PARTICLE CANNOT MOVE MORE THAN ONE CELL
 =  12.85    (WHEN MIN. R.F.=1)  AT K=  17, I=   1, J=  90

 MAXIMUM STEPSIZE WHICH MEETS STABILITY CRITERION OF THE ADVECTION TERM
 (FOR PURE FINITE-DIFFERENCE OPTION, MIXELM=0) 
 =  8.032    (WHEN MIN. R.F.=1)  AT K=  16, I=   1, J=  90


 TOTAL NUMBER OF POINT SOURCES/SINKS PRESENT IN THE FLOW MODEL =    30

 MAXIMUM STEPSIZE WHICH MEETS STABILITY CRITERION OF THE SINK & SOURCE TERM
 =  12.20    (WHEN MIN. R.F.=1)  AT K=  17, I=   1, J=  91

 MAXIMUM STEPSIZE WHICH MEETS STABILITY CRITERION OF THE DISPERSION TERM
 =  4.027    (WHEN MIN. R.F.=1)  AT K=  17, I=   1, J=  90
     1 CALLS TO GCG PACKAGE FOR TRANSPORT TIME STEP 745 IN FLOW TIME STEP   1 STRESS PERIOD   1
     8 TOTAL ITERATIONS
  MAXIMUM CONCENTRATION CHANGES FOR EACH ITERATION:
  MAX. CHANGE LAYER,ROW,COL MAX. CHANGE LAYER,ROW,COL MAX. CHANGE LAYER,ROW,COL MAX. CHANGE LAYER,ROW,COL MAX. CHANGE LAYER,ROW,COL
 ------------------------------------------------------------------------------------------------------------------------------------
   0.5283E-01 ( 20,  1, 87)  0.4170E-02 ( 19,  1, 89)  0.2177E-02 ( 18,  1, 86)  0.4638E-03 ( 20,  1, 89)  0.9650E-04 ( 16,  1, 89)
   0.2013E-04 ( 20,  1, 89)  0.1757E-04 ( 16,  1, 90)  0.7686E-06 ( 17,  1, 90)
     1 CALLS TO GCG PACKAGE FOR TRANSPORT TIME STEP 745 IN FLOW TIME STEP   1 STRESS PERIOD   1
     8 TOTAL ITERATIONS
  MAXIMUM CONCENTRATION CHANGES FOR EACH ITERATION:
  MAX. CHANGE LAYER,ROW,COL MAX. CHANGE LAYER,ROW,COL MAX. CHANGE LAYER,ROW,COL MAX. CHANGE LAYER,ROW,COL MAX. CHANGE LAYER,ROW,COL
 ------------------------------------------------------------------------------------------------------------------------------------
   0.5692E-01 ( 20,  1, 87)  0.4555E-02 ( 19,  1, 89)  0.2152E-02 ( 18,  1, 86)  0.4360E-03 ( 20,  1, 89)  0.1053E-03 ( 16,  1, 89)
   0.1612E-04 ( 23,  1, 87)  0.1592E-04 ( 16,  1, 90)  0.8259E-06 ( 17,  1, 90)
 
 SOLVING FOR HEAD 


     2 CALLS TO PCG ROUTINE FOR TIME STEP   1 IN STRESS PERIOD    1
     8 TOTAL ITERATIONS

 MAXIMUM HEAD CHANGE FOR EACH ITERATION (1 INDICATES THE FIRST INNER ITERATION):

    HEAD CHANGE    HEAD CHANGE    HEAD CHANGE    HEAD CHANGE    HEAD CHANGE 
   LAYER,ROW,COL  LAYER,ROW,COL  LAYER,ROW,COL  LAYER,ROW,COL  LAYER,ROW,COL
 ---------------------------------------------------------------------------
  1 -0.1344E-01  0  0.3601E-02  0  0.2955E-02  0 -0.1124E-01  0  0.1228E-01
   ( 15,  1, 86)  ( 17,  1, 89)  (  8,  1, 12)  ( 11,  1, 49)  ( 11,  1, 49)
  0 -0.2465E-02  0  0.8131E-03  1  0.6468E-03
   ( 11,  1, 50)  ( 11,  1, 57)  ( 11,  1, 64)

 MAXIMUM RESIDUAL FOR EACH ITERATION (1 INDICATES THE FIRST INNER ITERATION):

    RESIDUAL       RESIDUAL       RESIDUAL       RESIDUAL       RESIDUAL    
   LAYER,ROW,COL  LAYER,ROW,COL  LAYER,ROW,COL  LAYER,ROW,COL  LAYER,ROW,COL
 ---------------------------------------------------------------------------
  1 -0.1325E+06  0  0.9239E+05  0  0.9142E+05  0  0.2157E+05  0   5028.    
   ( 21,  1, 89)  ( 19,  1, 89)  ( 19,  1, 89)  ( 19,  1, 89)  ( 17,  1, 87)
  0  -2832.      0  -2441.      1  -2081.    
   ( 22,  1, 87)  ( 22,  1, 87)  ( 22,  1, 87)


 FLOW MODEL IS TRANSIENT
 FLOW MODEL CONTAINS CONSTANT-HEAD CELLS


 MAXIMUM STEPSIZE DURING WHICH ANY PARTICLE CANNOT MOVE MORE THAN ONE CELL
 =  13.22    (WHEN MIN. R.F.=1)  AT K=  17, I=   1, J=  90

 MAXIMUM STEPSIZE WHICH MEETS STABILITY CRITERION OF THE ADVECTION TERM
 (FOR PURE FINITE-DIFFERENCE OPTION, MIXELM=0) 
 =  8.008    (WHEN MIN. R.F.=1)  AT K=  16, I=   1, J=  90


 TOTAL NUMBER OF POINT SOURCES/SINKS PRESENT IN THE FLOW MODEL =    30

 MAXIMUM STEPSIZE WHICH MEETS STABILITY CRITERION OF THE SINK & SOURCE TERM
 =  12.18    (WHEN MIN. R.F.=1)  AT K=  17, I=   1, J=  91

 MAXIMUM STEPSIZE WHICH MEETS STABILITY CRITERION OF THE DISPERSION TERM
 =  4.359    (WHEN MIN. R.F.=1)  AT K=  17, I=   1, J=  90
     1 CALLS TO GCG PACKAGE FOR TRANSPORT TIME STEP 746 IN FLOW TIME STEP   1 STRESS PERIOD   1
    10 TOTAL ITERATIONS
     1 CALLS TO GCG PACKAGE FOR TRANSPORT TIME STEP 746 IN FLOW TIME STEP   1 STRESS PERIOD   1
     8 TOTAL ITERATIONS
 
 SOLVING FOR HEAD 


     2 CALLS TO PCG ROUTINE FOR TIME STEP   1 IN STRESS PERIOD    1
     9 TOTAL ITERATIONS

 MAXIMUM HEAD CHANGE FOR EACH ITERATION (1 INDICATES THE FIRST INNER ITERATION):

    HEAD CHANGE    HEAD CHANGE    HEAD CHANGE    HEAD CHANGE    HEAD CHANGE 
   LAYER,ROW,COL  LAYER,ROW,COL  LAYER,ROW,COL  LAYER,ROW,COL  LAYER,ROW,COL
 ---------------------------------------------------------------------------
  1  0.1386E-01  0  0.5206E-02  0 -0.3528E-02  0 -0.9067E-02  0  0.6889E-02
   ( 15,  1, 86)  ( 11,  1, 65)  (  7,  1, 12)  ( 11,  1, 65)  ( 11,  1, 67)
  0 -0.3751E-02  0  0.1521E-02  0 -0.7550E-03  1  0.5974E-03
   ( 11,  1, 57)  ( 11,  1, 57)  ( 11,  1, 63)  ( 11,  1, 63)

 MAXIMUM RESIDUAL FOR EACH ITERATION (1 INDICATES THE FIRST INNER ITERATION):

    RESIDUAL       RESIDUAL       RESIDUAL       RESIDUAL       RESIDUAL    
   LAYER,ROW,COL  LAYER,ROW,COL  LAYER,ROW,COL  LAYER,ROW,COL  LAYER,ROW,COL
 ---------------------------------------------------------------------------
  1  0.1322E+06  0 -0.9345E+05  0 -0.9259E+05  0 -0.6971E+05  0  -5957.    
   ( 21,  1, 89)  ( 19,  1, 89)  ( 19,  1, 89)  ( 19,  1, 89)  ( 17,  1, 87)
  0   2779.      0   2643.      0   1267.      1   1134.    
   ( 22,  1, 87)  ( 22,  1, 87)  ( 22,  1, 87)  ( 22,  1, 87)


 FLOW MODEL IS TRANSIENT
 FLOW MODEL CONTAINS CONSTANT-HEAD CELLS


 MAXIMUM STEPSIZE DURING WHICH ANY PARTICLE CANNOT MOVE MORE THAN ONE CELL
 =  12.92    (WHEN MIN. R.F.=1)  AT K=  17, I=   1, J=  90

 MAXIMUM STEPSIZE WHICH MEETS STABILITY CRITERION OF THE ADVECTION TERM
 (FOR PURE FINITE-DIFFERENCE OPTION, MIXELM=0) 
 =  8.061    (WHEN MIN. R.F.=1)  AT K=  16, I=   1, J=  90


 TOTAL NUMBER OF POINT SOURCES/SINKS PRESENT IN THE FLOW MODEL =    30

 MAXIMUM STEPSIZE WHICH MEETS STABILITY CRITERION OF THE SINK & SOURCE TERM
 =  12.29    (WHEN MIN. R.F.=1)  AT K=  17, I=   1, J=  91

 MAXIMUM STEPSIZE WHICH MEETS STABILITY CRITERION OF THE DISPERSION TERM
 =  4.052    (WHEN MIN. R.F.=1)  AT K=  17, I=   1, J=  90
     1 CALLS TO GCG PACKAGE FOR TRANSPORT TIME STEP 747 IN FLOW TIME STEP   1 STRESS PERIOD   1
     8 TOTAL ITERATIONS
     1 CALLS TO GCG PACKAGE FOR TRANSPORT TIME STEP 747 IN FLOW TIME STEP   1 STRESS PERIOD   1
     8 TOTAL ITERATIONS
 
 SOLVING FOR HEAD 


     2 CALLS TO PCG ROUTINE FOR TIME STEP   1 IN STRESS PERIOD    1
     9 TOTAL ITERATIONS

 MAXIMUM HEAD CHANGE FOR EACH ITERATION (1 INDICATES THE FIRST INNER ITERATION):

    HEAD CHANGE    HEAD CHANGE    HEAD CHANGE    HEAD CHANGE    HEAD CHANGE 
   LAYER,ROW,COL  LAYER,ROW,COL  LAYER,ROW,COL  LAYER,ROW,COL  LAYER,ROW,COL
 ---------------------------------------------------------------------------
  1 -0.1368E-01  0  0.4023E-02  0  0.3896E-02  0 -0.7864E-02  0  0.8378E-02
   ( 15,  1, 86)  ( 17,  1, 89)  (  8,  1, 12)  ( 11,  1, 53)  ( 11,  1, 53)
  0  0.1722E-02  0  0.1231E-02  0  0.8091E-03  1 -0.3771E-03
   ( 11,  1, 68)  ( 11,  1, 70)  ( 11,  1, 63)  ( 11,  1, 70)

 MAXIMUM RESIDUAL FOR EACH ITERATION (1 INDICATES THE FIRST INNER ITERATION):

    RESIDUAL       RESIDUAL       RESIDUAL       RESIDUAL       RESIDUAL    
   LAYER,ROW,COL  LAYER,ROW,COL  LAYER,ROW,COL  LAYER,ROW,COL  LAYER,ROW,COL
 ---------------------------------------------------------------------------
  1 -0.1353E+06  0  0.9627E+05  0  0.9546E+05  0  0.2068E+05  0   4918.    
   ( 21,  1, 89)  ( 19,  1, 89)  ( 19,  1, 89)  ( 19,  1, 89)  ( 17,  1, 87)
  0  -2870.      0  -2276.      0  -694.3      1  -588.8    
   ( 22,  1, 87)  ( 22,  1, 87)  ( 22,  1, 87)  ( 22,  1, 87)


 FLOW MODEL IS TRANSIENT
 FLOW MODEL CONTAINS CONSTANT-HEAD CELLS


 MAXIMUM STEPSIZE DURING WHICH ANY PARTICLE CANNOT MOVE MORE THAN ONE CELL
 =  13.22    (WHEN MIN. R.F.=1)  AT K=  17, I=   1, J=  90

 MAXIMUM STEPSIZE WHICH MEETS STABILITY CRITERION OF THE ADVECTION TERM
 (FOR PURE FINITE-DIFFERENCE OPTION, MIXELM=0) 
 =  8.006    (WHEN MIN. R.F.=1)  AT K=  16, I=   1, J=  90


 TOTAL NUMBER OF POINT SOURCES/SINKS PRESENT IN THE FLOW MODEL =    30

 MAXIMUM STEPSIZE WHICH MEETS STABILITY CRITERION OF THE SINK & SOURCE TERM
 =  12.20    (WHEN MIN. R.F.=1)  AT K=  17, I=   1, J=  91

 MAXIMUM STEPSIZE WHICH MEETS STABILITY CRITERION OF THE DISPERSION TERM
 =  4.369    (WHEN MIN. R.F.=1)  AT K=  17, I=   1, J=  90
     1 CALLS TO GCG PACKAGE FOR TRANSPORT TIME STEP 748 IN FLOW TIME STEP   1 STRESS PERIOD   1
     7 TOTAL ITERATIONS
     1 CALLS TO GCG PACKAGE FOR TRANSPORT TIME STEP 748 IN FLOW TIME STEP   1 STRESS PERIOD   1
     8 TOTAL ITERATIONS
 
 SOLVING FOR HEAD 


     2 CALLS TO PCG ROUTINE FOR TIME STEP   1 IN STRESS PERIOD    1
     9 TOTAL ITERATIONS

 MAXIMUM HEAD CHANGE FOR EACH ITERATION (1 INDICATES THE FIRST INNER ITERATION):

    HEAD CHANGE    HEAD CHANGE    HEAD CHANGE    HEAD CHANGE    HEAD CHANGE 
   LAYER,ROW,COL  LAYER,ROW,COL  LAYER,ROW,COL  LAYER,ROW,COL  LAYER,ROW,COL
 ---------------------------------------------------------------------------
  1  0.1334E-01  0 -0.3712E-02  0 -0.4078E-02  0 -0.6558E-02  0  0.8424E-02
   ( 15,  1, 86)  ( 17,  1, 89)  (  6,  1, 12)  ( 11,  1, 68)  ( 11,  1, 68)
  0  0.1547E-02  0  0.1094E-02  0 -0.8342E-03  1  0.7817E-03
   ( 11,  1, 39)  ( 11,  1, 61)  ( 11,  1, 60)  ( 11,  1, 67)

 MAXIMUM RESIDUAL FOR EACH ITERATION (1 INDICATES THE FIRST INNER ITERATION):

    RESIDUAL       RESIDUAL       RESIDUAL       RESIDUAL       RESIDUAL    
   LAYER,ROW,COL  LAYER,ROW,COL  LAYER,ROW,COL  LAYER,ROW,COL  LAYER,ROW,COL
 ---------------------------------------------------------------------------
  1  0.1349E+06  0 -0.9519E+05  0 -0.8089E+05  0 -0.3057E+05  0  -5893.    
   ( 21,  1, 89)  ( 19,  1, 89)  ( 19,  1, 89)  ( 19,  1, 89)  ( 17,  1, 87)
  0   2837.      0   2553.      0   882.7      1   743.4    
   ( 22,  1, 87)  ( 22,  1, 87)  ( 22,  1, 87)  ( 22,  1, 87)


 FLOW MODEL IS TRANSIENT
 FLOW MODEL CONTAINS CONSTANT-HEAD CELLS


 MAXIMUM STEPSIZE DURING WHICH ANY PARTICLE CANNOT MOVE MORE THAN ONE CELL
 =  12.85    (WHEN MIN. R.F.=1)  AT K=  17, I=   1, J=  90

 MAXIMUM STEPSIZE WHICH MEETS STABILITY CRITERION OF THE ADVECTION TERM
 (FOR PURE FINITE-DIFFERENCE OPTION, MIXELM=0) 
 =  8.033    (WHEN MIN. R.F.=1)  AT K=  16, I=   1, J=  90


 TOTAL NUMBER OF POINT SOURCES/SINKS PRESENT IN THE FLOW MODEL =    30

 MAXIMUM STEPSIZE WHICH MEETS STABILITY CRITERION OF THE SINK & SOURCE TERM
 =  12.20    (WHEN MIN. R.F.=1)  AT K=  17, I=   1, J=  91

 MAXIMUM STEPSIZE WHICH MEETS STABILITY CRITERION OF THE DISPERSION TERM
 =  4.024    (WHEN MIN. R.F.=1)  AT K=  17, I=   1, J=  90
     1 CALLS TO GCG PACKAGE FOR TRANSPORT TIME STEP 749 IN FLOW TIME STEP   1 STRESS PERIOD   1
     8 TOTAL ITERATIONS
     1 CALLS TO GCG PACKAGE FOR TRANSPORT TIME STEP 749 IN FLOW TIME STEP   1 STRESS PERIOD   1
     8 TOTAL ITERATIONS
 
 SOLVING FOR HEAD 


     2 CALLS TO PCG ROUTINE FOR TIME STEP   1 IN STRESS PERIOD    1
     9 TOTAL ITERATIONS

 MAXIMUM HEAD CHANGE FOR EACH ITERATION (1 INDICATES THE FIRST INNER ITERATION):

    HEAD CHANGE    HEAD CHANGE    HEAD CHANGE    HEAD CHANGE    HEAD CHANGE 
   LAYER,ROW,COL  LAYER,ROW,COL  LAYER,ROW,COL  LAYER,ROW,COL  LAYER,ROW,COL
 ---------------------------------------------------------------------------
  1 -0.1346E-01  0  0.3697E-02  0  0.3222E-02  0  0.1388E-01  0 -0.1480E-01
   ( 15,  1, 86)  ( 17,  1, 89)  (  8,  1, 12)  ( 11,  1, 49)  ( 11,  1, 49)
  0  0.2154E-02  0  0.1096E-02  0  0.5779E-03  1 -0.6596E-03
   ( 11,  1, 51)  ( 11,  1, 70)  ( 11,  1, 70)  ( 11,  1, 70)

 MAXIMUM RESIDUAL FOR EACH ITERATION (1 INDICATES THE FIRST INNER ITERATION):

    RESIDUAL       RESIDUAL       RESIDUAL       RESIDUAL       RESIDUAL    
   LAYER,ROW,COL  LAYER,ROW,COL  LAYER,ROW,COL  LAYER,ROW,COL  LAYER,ROW,COL
 ---------------------------------------------------------------------------
  1 -0.1321E+06  0  0.9249E+05  0  0.9159E+05  0  0.2389E+05  0   5143.    
   ( 21,  1, 89)  ( 19,  1, 89)  ( 19,  1, 89)  ( 19,  1, 89)  ( 17,  1, 87)
  0  -2832.      0  -2491.      0  -948.7      1  -835.1    
   ( 22,  1, 87)  ( 22,  1, 87)  ( 22,  1, 87)  ( 22,  1, 87)


 FLOW MODEL IS TRANSIENT
 FLOW MODEL CONTAINS CONSTANT-HEAD CELLS


 MAXIMUM STEPSIZE DURING WHICH ANY PARTICLE CANNOT MOVE MORE THAN ONE CELL
 =  13.21    (WHEN MIN. R.F.=1)  AT K=  17, I=   1, J=  90

 MAXIMUM STEPSIZE WHICH MEETS STABILITY CRITERION OF THE ADVECTION TERM
 (FOR PURE FINITE-DIFFERENCE OPTION, MIXELM=0) 
 =  8.002    (WHEN MIN. R.F.=1)  AT K=  16, I=   1, J=  90


 TOTAL NUMBER OF POINT SOURCES/SINKS PRESENT IN THE FLOW MODEL =    30

 MAXIMUM STEPSIZE WHICH MEETS STABILITY CRITERION OF THE SINK & SOURCE TERM
 =  12.17    (WHEN MIN. R.F.=1)  AT K=  17, I=   1, J=  91

 MAXIMUM STEPSIZE WHICH MEETS STABILITY CRITERION OF THE DISPERSION TERM
 =  4.359    (WHEN MIN. R.F.=1)  AT K=  17, I=   1, J=  90
     1 CALLS TO GCG PACKAGE FOR TRANSPORT TIME STEP 750 IN FLOW TIME STEP   1 STRESS PERIOD   1
     7 TOTAL ITERATIONS
  MAXIMUM CONCENTRATION CHANGES FOR EACH ITERATION:
  MAX. CHANGE LAYER,ROW,COL MAX. CHANGE LAYER,ROW,COL MAX. CHANGE LAYER,ROW,COL MAX. CHANGE LAYER,ROW,COL MAX. CHANGE LAYER,ROW,COL
 ------------------------------------------------------------------------------------------------------------------------------------
   0.4931E-01 ( 20,  1, 87)  0.3315E-02 ( 19,  1, 87)  0.2235E-02 ( 18,  1, 87)  0.2173E-03 ( 16,  1, 88)  0.1413E-03 ( 16,  1, 89)
   0.3006E-04 ( 16,  1, 90)  0.1172E-06 ( 21,  1, 78)
     1 CALLS TO GCG PACKAGE FOR TRANSPORT TIME STEP 750 IN FLOW TIME STEP   1 STRESS PERIOD   1
     8 TOTAL ITERATIONS
  MAXIMUM CONCENTRATION CHANGES FOR EACH ITERATION:
  MAX. CHANGE LAYER,ROW,COL MAX. CHANGE LAYER,ROW,COL MAX. CHANGE LAYER,ROW,COL MAX. CHANGE LAYER,ROW,COL MAX. CHANGE LAYER,ROW,COL
 ------------------------------------------------------------------------------------------------------------------------------------
   0.5278E-01 ( 20,  1, 87)  0.3516E-02 ( 19,  1, 87)  0.2309E-02 ( 18,  1, 87)  0.2186E-03 ( 16,  1, 88)  0.1339E-03 ( 16,  1, 89)
   0.3370E-04 ( 16,  1, 90)  0.4845E-05 ( 17,  1, 90)  0.5598E-06 ( 16,  1, 89)



 >>>>>>>>>>>>>>>>>>>>>>>>>>>>>>>>>>>>>>>>>>>>>>>>>>>>>>>FOR COMPONENT NO. 01<<<<<<<<<<<<<<<<<<<<<<<<<<<<<<<<<<<<<<<<<<<<<<<<<<<<<<<


                                            -------------------------------------------
                                                      TRANSPORT STEP NO.  750
                                            -------------------------------------------

 TOTAL ELAPSED TIME SINCE BEGINNING OF SIMULATION =   37500.00    D   
 .....................................................................

                     CUMMULATIVE MASS BUDGETS AT END OF TRANSPORT STEP  750, TIME STEP    1, STRESS PERIOD    1
                     ------------------------------------------------------------------------------------------

                                                             IN                           OUT
                                                      ----------------             ----------------
                               CONSTANT CONCENTRATION:    0.000000                    0.000000    
                                        CONSTANT HEAD:   0.1483874E+10              -0.1483663E+10
                                                WELLS:    0.000000                    0.000000    
                                             RECHARGE:    0.000000                    0.000000    
                               1ST/0TH ORDER REACTION:    0.000000                    0.000000    
                                MASS STORAGE (SOLUTE):   0.2074443E+09              -0.2076553E+09
                            ---------------------------------------------------------------------------
                                              [TOTAL]:   0.1691319E+10 KG           -0.1691320E+10 KG  

                                                          NET (IN - OUT):   -293.4850    
                                                   DISCREPANCY (PERCENT):  -0.1735243E-04



 >>>>>>>>>>>>>>>>>>>>>>>>>>>>>>>>>>>>>>>>>>>>>>>>>>>>>>>FOR COMPONENT NO. 02<<<<<<<<<<<<<<<<<<<<<<<<<<<<<<<<<<<<<<<<<<<<<<<<<<<<<<<


                                            -------------------------------------------
                                                      TRANSPORT STEP NO.  750
                                            -------------------------------------------

 TOTAL ELAPSED TIME SINCE BEGINNING OF SIMULATION =   37500.00    D   
 .....................................................................

                     CUMMULATIVE MASS BUDGETS AT END OF TRANSPORT STEP  750, TIME STEP    1, STRESS PERIOD    1
                     ------------------------------------------------------------------------------------------

                                                             IN                           OUT
                                                      ----------------             ----------------
                               CONSTANT CONCENTRATION:    0.000000                    0.000000    
                                        CONSTANT HEAD:    0.000000                  -0.2945089E+12
                                                WELLS:    0.000000                    0.000000    
                                             RECHARGE:    0.000000                    0.000000    
                               1ST/0TH ORDER REACTION:   0.6206250E+12                0.000000    
                                MASS STORAGE (SOLUTE):   0.1086427E+12              -0.4347588E+12
                            ---------------------------------------------------------------------------
                                              [TOTAL]:   0.7292691E+12 KG           -0.7292692E+12 KG  

                                                          NET (IN - OUT):   -99166.73    
                                                   DISCREPANCY (PERCENT):  -0.1359810E-04
 
 SOLVING FOR HEAD 


     2 CALLS TO PCG ROUTINE FOR TIME STEP   1 IN STRESS PERIOD    1
     9 TOTAL ITERATIONS

 MAXIMUM HEAD CHANGE FOR EACH ITERATION (1 INDICATES THE FIRST INNER ITERATION):

    HEAD CHANGE    HEAD CHANGE    HEAD CHANGE    HEAD CHANGE    HEAD CHANGE 
   LAYER,ROW,COL  LAYER,ROW,COL  LAYER,ROW,COL  LAYER,ROW,COL  LAYER,ROW,COL
 ---------------------------------------------------------------------------
  1  0.1348E-01  0 -0.3717E-02  0 -0.2325E-02  0 -0.8206E-02  0  0.8640E-02
   ( 15,  1, 86)  ( 17,  1, 89)  (  7,  1, 12)  ( 10,  1, 47)  (  8,  1, 46)
  0  0.1329E-02  0 -0.1068E-02  0 -0.7876E-03  1  0.7376E-03
   ( 11,  1, 53)  ( 11,  1, 53)  ( 11,  1, 64)  ( 11,  1, 65)

 MAXIMUM RESIDUAL FOR EACH ITERATION (1 INDICATES THE FIRST INNER ITERATION):

    RESIDUAL       RESIDUAL       RESIDUAL       RESIDUAL       RESIDUAL    
   LAYER,ROW,COL  LAYER,ROW,COL  LAYER,ROW,COL  LAYER,ROW,COL  LAYER,ROW,COL
 ---------------------------------------------------------------------------
  1  0.1313E+06  0 -0.9203E+05  0 -0.8990E+05  0 -0.3408E+05  0  -5904.    
   ( 21,  1, 89)  ( 19,  1, 89)  ( 19,  1, 89)  ( 19,  1, 89)  ( 17,  1, 87)
  0   2886.      0   2515.      0   894.0      1   759.4    
   ( 22,  1, 87)  ( 22,  1, 87)  ( 22,  1, 87)  ( 22,  1, 87)


 FLOW MODEL IS TRANSIENT
 FLOW MODEL CONTAINS CONSTANT-HEAD CELLS


 MAXIMUM STEPSIZE DURING WHICH ANY PARTICLE CANNOT MOVE MORE THAN ONE CELL
 =  12.87    (WHEN MIN. R.F.=1)  AT K=  17, I=   1, J=  90

 MAXIMUM STEPSIZE WHICH MEETS STABILITY CRITERION OF THE ADVECTION TERM
 (FOR PURE FINITE-DIFFERENCE OPTION, MIXELM=0) 
 =  8.038    (WHEN MIN. R.F.=1)  AT K=  16, I=   1, J=  90


 TOTAL NUMBER OF POINT SOURCES/SINKS PRESENT IN THE FLOW MODEL =    30

 MAXIMUM STEPSIZE WHICH MEETS STABILITY CRITERION OF THE SINK & SOURCE TERM
 =  12.21    (WHEN MIN. R.F.=1)  AT K=  17, I=   1, J=  91

 MAXIMUM STEPSIZE WHICH MEETS STABILITY CRITERION OF THE DISPERSION TERM
 =  4.035    (WHEN MIN. R.F.=1)  AT K=  17, I=   1, J=  90
     1 CALLS TO GCG PACKAGE FOR TRANSPORT TIME STEP 751 IN FLOW TIME STEP   1 STRESS PERIOD   1
     8 TOTAL ITERATIONS
     1 CALLS TO GCG PACKAGE FOR TRANSPORT TIME STEP 751 IN FLOW TIME STEP   1 STRESS PERIOD   1
     8 TOTAL ITERATIONS
 
 SOLVING FOR HEAD 


     2 CALLS TO PCG ROUTINE FOR TIME STEP   1 IN STRESS PERIOD    1
     9 TOTAL ITERATIONS

 MAXIMUM HEAD CHANGE FOR EACH ITERATION (1 INDICATES THE FIRST INNER ITERATION):

    HEAD CHANGE    HEAD CHANGE    HEAD CHANGE    HEAD CHANGE    HEAD CHANGE 
   LAYER,ROW,COL  LAYER,ROW,COL  LAYER,ROW,COL  LAYER,ROW,COL  LAYER,ROW,COL
 ---------------------------------------------------------------------------
  1 -0.1349E-01  0  0.3679E-02  0  0.2476E-02  0  0.1242E-01  0 -0.1301E-01
   ( 15,  1, 86)  ( 17,  1, 89)  (  8,  1, 12)  ( 11,  1, 50)  ( 11,  1, 50)
  0  0.2038E-02  0  0.1146E-02  0  0.5233E-03  1 -0.5038E-03
   ( 11,  1, 54)  ( 11,  1, 70)  ( 11,  1, 37)  ( 11,  1, 70)

 MAXIMUM RESIDUAL FOR EACH ITERATION (1 INDICATES THE FIRST INNER ITERATION):

    RESIDUAL       RESIDUAL       RESIDUAL       RESIDUAL       RESIDUAL    
   LAYER,ROW,COL  LAYER,ROW,COL  LAYER,ROW,COL  LAYER,ROW,COL  LAYER,ROW,COL
 ---------------------------------------------------------------------------
  1 -0.1326E+06  0  0.9343E+05  0  0.9214E+05  0  0.2685E+05  0   5345.    
   ( 21,  1, 89)  ( 19,  1, 89)  ( 19,  1, 89)  ( 19,  1, 89)  ( 17,  1, 87)
  0  -2837.      0  -2470.      0  -969.7      1  -857.2    
   ( 22,  1, 87)  ( 22,  1, 87)  ( 22,  1, 87)  ( 22,  1, 87)


 FLOW MODEL IS TRANSIENT
 FLOW MODEL CONTAINS CONSTANT-HEAD CELLS


 MAXIMUM STEPSIZE DURING WHICH ANY PARTICLE CANNOT MOVE MORE THAN ONE CELL
 =  13.21    (WHEN MIN. R.F.=1)  AT K=  17, I=   1, J=  90

 MAXIMUM STEPSIZE WHICH MEETS STABILITY CRITERION OF THE ADVECTION TERM
 (FOR PURE FINITE-DIFFERENCE OPTION, MIXELM=0) 
 =  8.001    (WHEN MIN. R.F.=1)  AT K=  16, I=   1, J=  90


 TOTAL NUMBER OF POINT SOURCES/SINKS PRESENT IN THE FLOW MODEL =    30

 MAXIMUM STEPSIZE WHICH MEETS STABILITY CRITERION OF THE SINK & SOURCE TERM
 =  12.17    (WHEN MIN. R.F.=1)  AT K=  17, I=   1, J=  91

 MAXIMUM STEPSIZE WHICH MEETS STABILITY CRITERION OF THE DISPERSION TERM
 =  4.356    (WHEN MIN. R.F.=1)  AT K=  17, I=   1, J=  90
     1 CALLS TO GCG PACKAGE FOR TRANSPORT TIME STEP 752 IN FLOW TIME STEP   1 STRESS PERIOD   1
     9 TOTAL ITERATIONS
     1 CALLS TO GCG PACKAGE FOR TRANSPORT TIME STEP 752 IN FLOW TIME STEP   1 STRESS PERIOD   1
     8 TOTAL ITERATIONS
 
 SOLVING FOR HEAD 


     2 CALLS TO PCG ROUTINE FOR TIME STEP   1 IN STRESS PERIOD    1
     9 TOTAL ITERATIONS

 MAXIMUM HEAD CHANGE FOR EACH ITERATION (1 INDICATES THE FIRST INNER ITERATION):

    HEAD CHANGE    HEAD CHANGE    HEAD CHANGE    HEAD CHANGE    HEAD CHANGE 
   LAYER,ROW,COL  LAYER,ROW,COL  LAYER,ROW,COL  LAYER,ROW,COL  LAYER,ROW,COL
 ---------------------------------------------------------------------------
  1  0.1351E-01  0 -0.3675E-02  0 -0.2302E-02  0 -0.8523E-02  0  0.8731E-02
   ( 15,  1, 86)  ( 17,  1, 89)  (  7,  1, 12)  (  9,  1, 47)  (  9,  1, 47)
  0  0.1222E-02  0 -0.1205E-02  0 -0.7160E-03  1  0.7747E-03
   ( 11,  1, 52)  ( 11,  1, 53)  ( 11,  1, 70)  ( 11,  1, 70)

 MAXIMUM RESIDUAL FOR EACH ITERATION (1 INDICATES THE FIRST INNER ITERATION):

    RESIDUAL       RESIDUAL       RESIDUAL       RESIDUAL       RESIDUAL    
   LAYER,ROW,COL  LAYER,ROW,COL  LAYER,ROW,COL  LAYER,ROW,COL  LAYER,ROW,COL
 ---------------------------------------------------------------------------
  1  0.1317E+06  0 -0.9234E+05  0 -0.9056E+05  0 -0.3484E+05  0  -5894.    
   ( 21,  1, 89)  ( 19,  1, 89)  ( 19,  1, 89)  ( 19,  1, 89)  ( 17,  1, 87)
  0   2894.      0   2381.      0   864.2      1   726.6    
   ( 22,  1, 87)  ( 22,  1, 87)  ( 22,  1, 87)  ( 22,  1, 87)


 FLOW MODEL IS TRANSIENT
 FLOW MODEL CONTAINS CONSTANT-HEAD CELLS


 MAXIMUM STEPSIZE DURING WHICH ANY PARTICLE CANNOT MOVE MORE THAN ONE CELL
 =  12.87    (WHEN MIN. R.F.=1)  AT K=  17, I=   1, J=  90

 MAXIMUM STEPSIZE WHICH MEETS STABILITY CRITERION OF THE ADVECTION TERM
 (FOR PURE FINITE-DIFFERENCE OPTION, MIXELM=0) 
 =  8.037    (WHEN MIN. R.F.=1)  AT K=  16, I=   1, J=  90


 TOTAL NUMBER OF POINT SOURCES/SINKS PRESENT IN THE FLOW MODEL =    30

 MAXIMUM STEPSIZE WHICH MEETS STABILITY CRITERION OF THE SINK & SOURCE TERM
 =  12.21    (WHEN MIN. R.F.=1)  AT K=  17, I=   1, J=  91

 MAXIMUM STEPSIZE WHICH MEETS STABILITY CRITERION OF THE DISPERSION TERM
 =  4.036    (WHEN MIN. R.F.=1)  AT K=  17, I=   1, J=  90
     1 CALLS TO GCG PACKAGE FOR TRANSPORT TIME STEP 753 IN FLOW TIME STEP   1 STRESS PERIOD   1
     8 TOTAL ITERATIONS
     1 CALLS TO GCG PACKAGE FOR TRANSPORT TIME STEP 753 IN FLOW TIME STEP   1 STRESS PERIOD   1
     8 TOTAL ITERATIONS
 
 SOLVING FOR HEAD 


     2 CALLS TO PCG ROUTINE FOR TIME STEP   1 IN STRESS PERIOD    1
     9 TOTAL ITERATIONS

 MAXIMUM HEAD CHANGE FOR EACH ITERATION (1 INDICATES THE FIRST INNER ITERATION):

    HEAD CHANGE    HEAD CHANGE    HEAD CHANGE    HEAD CHANGE    HEAD CHANGE 
   LAYER,ROW,COL  LAYER,ROW,COL  LAYER,ROW,COL  LAYER,ROW,COL  LAYER,ROW,COL
 ---------------------------------------------------------------------------
  1 -0.1348E-01  0  0.3663E-02  0  0.2397E-02  0  0.1127E-01  0 -0.1175E-01
   ( 15,  1, 86)  ( 17,  1, 89)  (  8,  1, 12)  ( 11,  1, 50)  ( 11,  1, 50)
  0  0.1980E-02  0  0.1163E-02  0  0.5216E-03  1 -0.5359E-03
   ( 11,  1, 53)  ( 11,  1, 70)  ( 11,  1, 39)  ( 11,  1, 70)

 MAXIMUM RESIDUAL FOR EACH ITERATION (1 INDICATES THE FIRST INNER ITERATION):

    RESIDUAL       RESIDUAL       RESIDUAL       RESIDUAL       RESIDUAL    
   LAYER,ROW,COL  LAYER,ROW,COL  LAYER,ROW,COL  LAYER,ROW,COL  LAYER,ROW,COL
 ---------------------------------------------------------------------------
  1 -0.1321E+06  0  0.9301E+05  0  0.9160E+05  0  0.2734E+05  0   5367.    
   ( 21,  1, 89)  ( 19,  1, 89)  ( 19,  1, 89)  ( 19,  1, 89)  ( 17,  1, 87)
  0  -2852.      0  -2410.      0  -918.4      1  -807.3    
   ( 22,  1, 87)  ( 22,  1, 87)  ( 22,  1, 87)  ( 22,  1, 87)


 FLOW MODEL IS TRANSIENT
 FLOW MODEL CONTAINS CONSTANT-HEAD CELLS


 MAXIMUM STEPSIZE DURING WHICH ANY PARTICLE CANNOT MOVE MORE THAN ONE CELL
 =  13.21    (WHEN MIN. R.F.=1)  AT K=  17, I=   1, J=  90

 MAXIMUM STEPSIZE WHICH MEETS STABILITY CRITERION OF THE ADVECTION TERM
 (FOR PURE FINITE-DIFFERENCE OPTION, MIXELM=0) 
 =  8.001    (WHEN MIN. R.F.=1)  AT K=  16, I=   1, J=  90


 TOTAL NUMBER OF POINT SOURCES/SINKS PRESENT IN THE FLOW MODEL =    30

 MAXIMUM STEPSIZE WHICH MEETS STABILITY CRITERION OF THE SINK & SOURCE TERM
 =  12.17    (WHEN MIN. R.F.=1)  AT K=  17, I=   1, J=  91

 MAXIMUM STEPSIZE WHICH MEETS STABILITY CRITERION OF THE DISPERSION TERM
 =  4.355    (WHEN MIN. R.F.=1)  AT K=  17, I=   1, J=  90
     1 CALLS TO GCG PACKAGE FOR TRANSPORT TIME STEP 754 IN FLOW TIME STEP   1 STRESS PERIOD   1
     9 TOTAL ITERATIONS
     1 CALLS TO GCG PACKAGE FOR TRANSPORT TIME STEP 754 IN FLOW TIME STEP   1 STRESS PERIOD   1
     8 TOTAL ITERATIONS
 
 SOLVING FOR HEAD 


     2 CALLS TO PCG ROUTINE FOR TIME STEP   1 IN STRESS PERIOD    1
     9 TOTAL ITERATIONS

 MAXIMUM HEAD CHANGE FOR EACH ITERATION (1 INDICATES THE FIRST INNER ITERATION):

    HEAD CHANGE    HEAD CHANGE    HEAD CHANGE    HEAD CHANGE    HEAD CHANGE 
   LAYER,ROW,COL  LAYER,ROW,COL  LAYER,ROW,COL  LAYER,ROW,COL  LAYER,ROW,COL
 ---------------------------------------------------------------------------
  1  0.1348E-01  0 -0.3640E-02  0 -0.2303E-02  0 -0.8644E-02  0  0.8797E-02
   ( 15,  1, 86)  ( 17,  1, 89)  (  7,  1, 12)  (  8,  1, 48)  (  6,  1, 47)
  0  0.1301E-02  0 -0.1286E-02  0 -0.7953E-03  1  0.6925E-03
   ( 11,  1, 53)  ( 11,  1, 53)  ( 11,  1, 70)  ( 11,  1, 70)

 MAXIMUM RESIDUAL FOR EACH ITERATION (1 INDICATES THE FIRST INNER ITERATION):

    RESIDUAL       RESIDUAL       RESIDUAL       RESIDUAL       RESIDUAL    
   LAYER,ROW,COL  LAYER,ROW,COL  LAYER,ROW,COL  LAYER,ROW,COL  LAYER,ROW,COL
 ---------------------------------------------------------------------------
  1  0.1316E+06  0 -0.9226E+05  0 -0.9046E+05  0 -0.3628E+05  0  -5926.    
   ( 21,  1, 89)  ( 19,  1, 89)  ( 19,  1, 89)  ( 19,  1, 89)  ( 17,  1, 87)
  0   2891.      0   2389.      0   866.8      1   739.7    
   ( 22,  1, 87)  ( 22,  1, 87)  ( 22,  1, 87)  ( 22,  1, 87)


 FLOW MODEL IS TRANSIENT
 FLOW MODEL CONTAINS CONSTANT-HEAD CELLS


 MAXIMUM STEPSIZE DURING WHICH ANY PARTICLE CANNOT MOVE MORE THAN ONE CELL
 =  12.87    (WHEN MIN. R.F.=1)  AT K=  17, I=   1, J=  90

 MAXIMUM STEPSIZE WHICH MEETS STABILITY CRITERION OF THE ADVECTION TERM
 (FOR PURE FINITE-DIFFERENCE OPTION, MIXELM=0) 
 =  8.036    (WHEN MIN. R.F.=1)  AT K=  16, I=   1, J=  90


 TOTAL NUMBER OF POINT SOURCES/SINKS PRESENT IN THE FLOW MODEL =    30

 MAXIMUM STEPSIZE WHICH MEETS STABILITY CRITERION OF THE SINK & SOURCE TERM
 =  12.21    (WHEN MIN. R.F.=1)  AT K=  17, I=   1, J=  91

 MAXIMUM STEPSIZE WHICH MEETS STABILITY CRITERION OF THE DISPERSION TERM
 =  4.036    (WHEN MIN. R.F.=1)  AT K=  17, I=   1, J=  90
     1 CALLS TO GCG PACKAGE FOR TRANSPORT TIME STEP 755 IN FLOW TIME STEP   1 STRESS PERIOD   1
     8 TOTAL ITERATIONS
  MAXIMUM CONCENTRATION CHANGES FOR EACH ITERATION:
  MAX. CHANGE LAYER,ROW,COL MAX. CHANGE LAYER,ROW,COL MAX. CHANGE LAYER,ROW,COL MAX. CHANGE LAYER,ROW,COL MAX. CHANGE LAYER,ROW,COL
 ------------------------------------------------------------------------------------------------------------------------------------
   0.5257E-01 ( 20,  1, 87)  0.4156E-02 ( 19,  1, 89)  0.2149E-02 ( 18,  1, 86)  0.4663E-03 ( 20,  1, 89)  0.9554E-04 ( 16,  1, 89)
   0.1987E-04 ( 20,  1, 89)  0.1710E-04 ( 16,  1, 90)  0.7514E-06 ( 17,  1, 90)
     1 CALLS TO GCG PACKAGE FOR TRANSPORT TIME STEP 755 IN FLOW TIME STEP   1 STRESS PERIOD   1
     8 TOTAL ITERATIONS
  MAXIMUM CONCENTRATION CHANGES FOR EACH ITERATION:
  MAX. CHANGE LAYER,ROW,COL MAX. CHANGE LAYER,ROW,COL MAX. CHANGE LAYER,ROW,COL MAX. CHANGE LAYER,ROW,COL MAX. CHANGE LAYER,ROW,COL
 ------------------------------------------------------------------------------------------------------------------------------------
   0.5653E-01 ( 20,  1, 87)  0.4535E-02 ( 19,  1, 89)  0.2123E-02 ( 18,  1, 86)  0.4329E-03 ( 20,  1, 89)  0.1034E-03 ( 16,  1, 89)
   0.1573E-04 ( 23,  1, 87)  0.1538E-04 ( 16,  1, 90)  0.8281E-06 ( 17,  1, 90)
 
 SOLVING FOR HEAD 


     2 CALLS TO PCG ROUTINE FOR TIME STEP   1 IN STRESS PERIOD    1
     9 TOTAL ITERATIONS

 MAXIMUM HEAD CHANGE FOR EACH ITERATION (1 INDICATES THE FIRST INNER ITERATION):

    HEAD CHANGE    HEAD CHANGE    HEAD CHANGE    HEAD CHANGE    HEAD CHANGE 
   LAYER,ROW,COL  LAYER,ROW,COL  LAYER,ROW,COL  LAYER,ROW,COL  LAYER,ROW,COL
 ---------------------------------------------------------------------------
  1 -0.1347E-01  0  0.3646E-02  0  0.2344E-02  0  0.1100E-01  0 -0.1147E-01
   ( 15,  1, 86)  ( 17,  1, 89)  (  8,  1, 12)  ( 11,  1, 50)  ( 11,  1, 51)
  0  0.1794E-02  0  0.1160E-02  0  0.5255E-03  1 -0.5608E-03
   ( 11,  1, 53)  ( 11,  1, 70)  ( 11,  1, 39)  ( 11,  1, 70)

 MAXIMUM RESIDUAL FOR EACH ITERATION (1 INDICATES THE FIRST INNER ITERATION):

    RESIDUAL       RESIDUAL       RESIDUAL       RESIDUAL       RESIDUAL    
   LAYER,ROW,COL  LAYER,ROW,COL  LAYER,ROW,COL  LAYER,ROW,COL  LAYER,ROW,COL
 ---------------------------------------------------------------------------
  1 -0.1317E+06  0  0.9254E+05  0  0.9096E+05  0  0.2871E+05  0   5414.    
   ( 21,  1, 89)  ( 19,  1, 89)  ( 19,  1, 89)  ( 19,  1, 89)  ( 17,  1, 87)
  0  -2858.      0  -2405.      0  -939.8      1  -823.6    
   ( 22,  1, 87)  ( 22,  1, 87)  ( 22,  1, 87)  ( 22,  1, 87)


 FLOW MODEL IS TRANSIENT
 FLOW MODEL CONTAINS CONSTANT-HEAD CELLS


 MAXIMUM STEPSIZE DURING WHICH ANY PARTICLE CANNOT MOVE MORE THAN ONE CELL
 =  13.20    (WHEN MIN. R.F.=1)  AT K=  17, I=   1, J=  90

 MAXIMUM STEPSIZE WHICH MEETS STABILITY CRITERION OF THE ADVECTION TERM
 (FOR PURE FINITE-DIFFERENCE OPTION, MIXELM=0) 
 =  8.000    (WHEN MIN. R.F.=1)  AT K=  16, I=   1, J=  90


 TOTAL NUMBER OF POINT SOURCES/SINKS PRESENT IN THE FLOW MODEL =    30

 MAXIMUM STEPSIZE WHICH MEETS STABILITY CRITERION OF THE SINK & SOURCE TERM
 =  12.16    (WHEN MIN. R.F.=1)  AT K=  17, I=   1, J=  91

 MAXIMUM STEPSIZE WHICH MEETS STABILITY CRITERION OF THE DISPERSION TERM
 =  4.352    (WHEN MIN. R.F.=1)  AT K=  17, I=   1, J=  90
     1 CALLS TO GCG PACKAGE FOR TRANSPORT TIME STEP 756 IN FLOW TIME STEP   1 STRESS PERIOD   1
     9 TOTAL ITERATIONS
     1 CALLS TO GCG PACKAGE FOR TRANSPORT TIME STEP 756 IN FLOW TIME STEP   1 STRESS PERIOD   1
     8 TOTAL ITERATIONS
 
 SOLVING FOR HEAD 


     2 CALLS TO PCG ROUTINE FOR TIME STEP   1 IN STRESS PERIOD    1
     9 TOTAL ITERATIONS

 MAXIMUM HEAD CHANGE FOR EACH ITERATION (1 INDICATES THE FIRST INNER ITERATION):

    HEAD CHANGE    HEAD CHANGE    HEAD CHANGE    HEAD CHANGE    HEAD CHANGE 
   LAYER,ROW,COL  LAYER,ROW,COL  LAYER,ROW,COL  LAYER,ROW,COL  LAYER,ROW,COL
 ---------------------------------------------------------------------------
  1  0.1349E-01  0 -0.3640E-02  0 -0.2305E-02  0 -0.8776E-02  0  0.8837E-02
   ( 15,  1, 86)  ( 17,  1, 89)  (  7,  1, 12)  (  8,  1, 48)  (  8,  1, 48)
  0  0.1360E-02  0 -0.1297E-02  0 -0.8231E-03  1  0.6765E-03
   ( 11,  1, 53)  ( 11,  1, 53)  ( 11,  1, 70)  ( 11,  1, 70)

 MAXIMUM RESIDUAL FOR EACH ITERATION (1 INDICATES THE FIRST INNER ITERATION):

    RESIDUAL       RESIDUAL       RESIDUAL       RESIDUAL       RESIDUAL    
   LAYER,ROW,COL  LAYER,ROW,COL  LAYER,ROW,COL  LAYER,ROW,COL  LAYER,ROW,COL
 ---------------------------------------------------------------------------
  1  0.1313E+06  0 -0.9211E+05  0 -0.9040E+05  0 -0.3728E+05  0  -5916.    
   ( 21,  1, 89)  ( 19,  1, 89)  ( 19,  1, 89)  ( 19,  1, 89)  ( 17,  1, 87)
  0   2890.      0   2397.      0   873.7      1   748.1    
   ( 22,  1, 87)  ( 22,  1, 87)  ( 22,  1, 87)  ( 22,  1, 87)


 FLOW MODEL IS TRANSIENT
 FLOW MODEL CONTAINS CONSTANT-HEAD CELLS


 MAXIMUM STEPSIZE DURING WHICH ANY PARTICLE CANNOT MOVE MORE THAN ONE CELL
 =  12.87    (WHEN MIN. R.F.=1)  AT K=  17, I=   1, J=  90

 MAXIMUM STEPSIZE WHICH MEETS STABILITY CRITERION OF THE ADVECTION TERM
 (FOR PURE FINITE-DIFFERENCE OPTION, MIXELM=0) 
 =  8.037    (WHEN MIN. R.F.=1)  AT K=  16, I=   1, J=  90


 TOTAL NUMBER OF POINT SOURCES/SINKS PRESENT IN THE FLOW MODEL =    30

 MAXIMUM STEPSIZE WHICH MEETS STABILITY CRITERION OF THE SINK & SOURCE TERM
 =  12.21    (WHEN MIN. R.F.=1)  AT K=  17, I=   1, J=  91

 MAXIMUM STEPSIZE WHICH MEETS STABILITY CRITERION OF THE DISPERSION TERM
 =  4.036    (WHEN MIN. R.F.=1)  AT K=  17, I=   1, J=  90
     1 CALLS TO GCG PACKAGE FOR TRANSPORT TIME STEP 757 IN FLOW TIME STEP   1 STRESS PERIOD   1
     8 TOTAL ITERATIONS
     1 CALLS TO GCG PACKAGE FOR TRANSPORT TIME STEP 757 IN FLOW TIME STEP   1 STRESS PERIOD   1
     8 TOTAL ITERATIONS
 
 SOLVING FOR HEAD 


     2 CALLS TO PCG ROUTINE FOR TIME STEP   1 IN STRESS PERIOD    1
     9 TOTAL ITERATIONS

 MAXIMUM HEAD CHANGE FOR EACH ITERATION (1 INDICATES THE FIRST INNER ITERATION):

    HEAD CHANGE    HEAD CHANGE    HEAD CHANGE    HEAD CHANGE    HEAD CHANGE 
   LAYER,ROW,COL  LAYER,ROW,COL  LAYER,ROW,COL  LAYER,ROW,COL  LAYER,ROW,COL
 ---------------------------------------------------------------------------
  1 -0.1348E-01  0  0.3640E-02  0  0.2346E-02  0  0.1076E-01  0 -0.1133E-01
   ( 15,  1, 86)  ( 17,  1, 89)  (  8,  1, 12)  ( 11,  1, 50)  ( 11,  1, 51)
  0 -0.1776E-02  0  0.1167E-02  0  0.5320E-03  1 -0.5721E-03
   ( 11,  1, 70)  ( 11,  1, 70)  ( 11,  1, 39)  ( 11,  1, 70)

 MAXIMUM RESIDUAL FOR EACH ITERATION (1 INDICATES THE FIRST INNER ITERATION):

    RESIDUAL       RESIDUAL       RESIDUAL       RESIDUAL       RESIDUAL    
   LAYER,ROW,COL  LAYER,ROW,COL  LAYER,ROW,COL  LAYER,ROW,COL  LAYER,ROW,COL
 ---------------------------------------------------------------------------
  1 -0.1314E+06  0  0.9222E+05  0  0.9067E+05  0  0.2882E+05  0   5423.    
   ( 21,  1, 89)  ( 19,  1, 89)  ( 19,  1, 89)  ( 19,  1, 89)  ( 17,  1, 87)
  0  -2867.      0  -2388.      0  -929.4      1  -813.1    
   ( 22,  1, 87)  ( 22,  1, 87)  ( 22,  1, 87)  ( 22,  1, 87)


 FLOW MODEL IS TRANSIENT
 FLOW MODEL CONTAINS CONSTANT-HEAD CELLS


 MAXIMUM STEPSIZE DURING WHICH ANY PARTICLE CANNOT MOVE MORE THAN ONE CELL
 =  13.20    (WHEN MIN. R.F.=1)  AT K=  17, I=   1, J=  90

 MAXIMUM STEPSIZE WHICH MEETS STABILITY CRITERION OF THE ADVECTION TERM
 (FOR PURE FINITE-DIFFERENCE OPTION, MIXELM=0) 
 =  8.000    (WHEN MIN. R.F.=1)  AT K=  16, I=   1, J=  90


 TOTAL NUMBER OF POINT SOURCES/SINKS PRESENT IN THE FLOW MODEL =    30

 MAXIMUM STEPSIZE WHICH MEETS STABILITY CRITERION OF THE SINK & SOURCE TERM
 =  12.16    (WHEN MIN. R.F.=1)  AT K=  17, I=   1, J=  91

 MAXIMUM STEPSIZE WHICH MEETS STABILITY CRITERION OF THE DISPERSION TERM
 =  4.351    (WHEN MIN. R.F.=1)  AT K=  17, I=   1, J=  90
     1 CALLS TO GCG PACKAGE FOR TRANSPORT TIME STEP 758 IN FLOW TIME STEP   1 STRESS PERIOD   1
     9 TOTAL ITERATIONS
     1 CALLS TO GCG PACKAGE FOR TRANSPORT TIME STEP 758 IN FLOW TIME STEP   1 STRESS PERIOD   1
     8 TOTAL ITERATIONS
 
 SOLVING FOR HEAD 


     2 CALLS TO PCG ROUTINE FOR TIME STEP   1 IN STRESS PERIOD    1
     9 TOTAL ITERATIONS

 MAXIMUM HEAD CHANGE FOR EACH ITERATION (1 INDICATES THE FIRST INNER ITERATION):

    HEAD CHANGE    HEAD CHANGE    HEAD CHANGE    HEAD CHANGE    HEAD CHANGE 
   LAYER,ROW,COL  LAYER,ROW,COL  LAYER,ROW,COL  LAYER,ROW,COL  LAYER,ROW,COL
 ---------------------------------------------------------------------------
  1  0.1349E-01  0 -0.3636E-02  0 -0.2305E-02  0 -0.8757E-02  0  0.8845E-02
   ( 15,  1, 86)  ( 17,  1, 89)  (  7,  1, 12)  (  7,  1, 48)  (  8,  1, 48)
  0  0.1392E-02  0 -0.1298E-02  0 -0.8479E-03  1  0.6829E-03
   ( 11,  1, 53)  ( 11,  1, 53)  ( 11,  1, 70)  ( 11,  1, 70)

 MAXIMUM RESIDUAL FOR EACH ITERATION (1 INDICATES THE FIRST INNER ITERATION):

    RESIDUAL       RESIDUAL       RESIDUAL       RESIDUAL       RESIDUAL    
   LAYER,ROW,COL  LAYER,ROW,COL  LAYER,ROW,COL  LAYER,ROW,COL  LAYER,ROW,COL
 ---------------------------------------------------------------------------
  1  0.1312E+06  0 -0.9206E+05  0 -0.9023E+05  0 -0.3770E+05  0  -5924.    
   ( 21,  1, 89)  ( 19,  1, 89)  ( 19,  1, 89)  ( 19,  1, 89)  ( 17,  1, 87)
  0   2889.      0   2400.      0   875.4      1   750.8    
   ( 22,  1, 87)  ( 22,  1, 87)  ( 22,  1, 87)  ( 22,  1, 87)


 FLOW MODEL IS TRANSIENT
 FLOW MODEL CONTAINS CONSTANT-HEAD CELLS


 MAXIMUM STEPSIZE DURING WHICH ANY PARTICLE CANNOT MOVE MORE THAN ONE CELL
 =  12.87    (WHEN MIN. R.F.=1)  AT K=  17, I=   1, J=  90

 MAXIMUM STEPSIZE WHICH MEETS STABILITY CRITERION OF THE ADVECTION TERM
 (FOR PURE FINITE-DIFFERENCE OPTION, MIXELM=0) 
 =  8.037    (WHEN MIN. R.F.=1)  AT K=  16, I=   1, J=  90


 TOTAL NUMBER OF POINT SOURCES/SINKS PRESENT IN THE FLOW MODEL =    30

 MAXIMUM STEPSIZE WHICH MEETS STABILITY CRITERION OF THE SINK & SOURCE TERM
 =  12.21    (WHEN MIN. R.F.=1)  AT K=  17, I=   1, J=  91

 MAXIMUM STEPSIZE WHICH MEETS STABILITY CRITERION OF THE DISPERSION TERM
 =  4.036    (WHEN MIN. R.F.=1)  AT K=  17, I=   1, J=  90
     1 CALLS TO GCG PACKAGE FOR TRANSPORT TIME STEP 759 IN FLOW TIME STEP   1 STRESS PERIOD   1
     8 TOTAL ITERATIONS
     1 CALLS TO GCG PACKAGE FOR TRANSPORT TIME STEP 759 IN FLOW TIME STEP   1 STRESS PERIOD   1
     8 TOTAL ITERATIONS
 
 SOLVING FOR HEAD 


     2 CALLS TO PCG ROUTINE FOR TIME STEP   1 IN STRESS PERIOD    1
     9 TOTAL ITERATIONS

 MAXIMUM HEAD CHANGE FOR EACH ITERATION (1 INDICATES THE FIRST INNER ITERATION):

    HEAD CHANGE    HEAD CHANGE    HEAD CHANGE    HEAD CHANGE    HEAD CHANGE 
   LAYER,ROW,COL  LAYER,ROW,COL  LAYER,ROW,COL  LAYER,ROW,COL  LAYER,ROW,COL
 ---------------------------------------------------------------------------
  1 -0.1349E-01  0  0.3634E-02  0  0.2354E-02  0  0.1073E-01  0 -0.1129E-01
   ( 15,  1, 86)  ( 17,  1, 89)  (  8,  1, 12)  ( 11,  1, 51)  ( 11,  1, 51)
  0 -0.1741E-02  0  0.1184E-02  0  0.5389E-03  1 -0.5821E-03
   ( 11,  1, 70)  ( 11,  1, 70)  ( 11,  1, 40)  ( 11,  1, 70)

 MAXIMUM RESIDUAL FOR EACH ITERATION (1 INDICATES THE FIRST INNER ITERATION):

    RESIDUAL       RESIDUAL       RESIDUAL       RESIDUAL       RESIDUAL    
   LAYER,ROW,COL  LAYER,ROW,COL  LAYER,ROW,COL  LAYER,ROW,COL  LAYER,ROW,COL
 ---------------------------------------------------------------------------
  1 -0.1312E+06  0  0.9205E+05  0  0.9054E+05  0  0.2896E+05  0   5428.    
   ( 21,  1, 89)  ( 19,  1, 89)  ( 19,  1, 89)  ( 19,  1, 89)  ( 17,  1, 87)
  0  -2871.      0  -2360.      0  -914.0      1  -797.6    
   ( 22,  1, 87)  ( 22,  1, 87)  ( 22,  1, 87)  ( 22,  1, 87)


 FLOW MODEL IS TRANSIENT
 FLOW MODEL CONTAINS CONSTANT-HEAD CELLS


 MAXIMUM STEPSIZE DURING WHICH ANY PARTICLE CANNOT MOVE MORE THAN ONE CELL
 =  13.20    (WHEN MIN. R.F.=1)  AT K=  17, I=   1, J=  90

 MAXIMUM STEPSIZE WHICH MEETS STABILITY CRITERION OF THE ADVECTION TERM
 (FOR PURE FINITE-DIFFERENCE OPTION, MIXELM=0) 
 =  8.001    (WHEN MIN. R.F.=1)  AT K=  16, I=   1, J=  90


 TOTAL NUMBER OF POINT SOURCES/SINKS PRESENT IN THE FLOW MODEL =    30

 MAXIMUM STEPSIZE WHICH MEETS STABILITY CRITERION OF THE SINK & SOURCE TERM
 =  12.16    (WHEN MIN. R.F.=1)  AT K=  17, I=   1, J=  91

 MAXIMUM STEPSIZE WHICH MEETS STABILITY CRITERION OF THE DISPERSION TERM
 =  4.350    (WHEN MIN. R.F.=1)  AT K=  17, I=   1, J=  90
     1 CALLS TO GCG PACKAGE FOR TRANSPORT TIME STEP 760 IN FLOW TIME STEP   1 STRESS PERIOD   1
     9 TOTAL ITERATIONS
  MAXIMUM CONCENTRATION CHANGES FOR EACH ITERATION:
  MAX. CHANGE LAYER,ROW,COL MAX. CHANGE LAYER,ROW,COL MAX. CHANGE LAYER,ROW,COL MAX. CHANGE LAYER,ROW,COL MAX. CHANGE LAYER,ROW,COL
 ------------------------------------------------------------------------------------------------------------------------------------
   0.4936E-01 ( 20,  1, 87)  0.3308E-02 ( 19,  1, 87)  0.2214E-02 ( 18,  1, 87)  0.2158E-03 ( 16,  1, 88)  0.1409E-03 ( 16,  1, 89)
   0.2967E-04 ( 16,  1, 90)  0.1825E-05 ( 21,  1, 78)  0.2901E-05 ( 21,  1, 78)  0.7436E-06 ( 16,  1, 89)
     1 CALLS TO GCG PACKAGE FOR TRANSPORT TIME STEP 760 IN FLOW TIME STEP   1 STRESS PERIOD   1
     8 TOTAL ITERATIONS
  MAXIMUM CONCENTRATION CHANGES FOR EACH ITERATION:
  MAX. CHANGE LAYER,ROW,COL MAX. CHANGE LAYER,ROW,COL MAX. CHANGE LAYER,ROW,COL MAX. CHANGE LAYER,ROW,COL MAX. CHANGE LAYER,ROW,COL
 ------------------------------------------------------------------------------------------------------------------------------------
   0.5262E-01 ( 20,  1, 87)  0.3485E-02 ( 19,  1, 87)  0.2283E-02 ( 18,  1, 87)  0.2156E-03 ( 16,  1, 88)  0.1336E-03 ( 16,  1, 89)
   0.3286E-04 ( 16,  1, 90)  0.4857E-05 ( 17,  1, 90)  0.5490E-06 ( 16,  1, 89)



 >>>>>>>>>>>>>>>>>>>>>>>>>>>>>>>>>>>>>>>>>>>>>>>>>>>>>>>FOR COMPONENT NO. 01<<<<<<<<<<<<<<<<<<<<<<<<<<<<<<<<<<<<<<<<<<<<<<<<<<<<<<<


                                            -------------------------------------------
                                                      TRANSPORT STEP NO.  760
                                            -------------------------------------------

 TOTAL ELAPSED TIME SINCE BEGINNING OF SIMULATION =   38000.00    D   
 .....................................................................

                     CUMMULATIVE MASS BUDGETS AT END OF TRANSPORT STEP  760, TIME STEP    1, STRESS PERIOD    1
                     ------------------------------------------------------------------------------------------

                                                             IN                           OUT
                                                      ----------------             ----------------
                               CONSTANT CONCENTRATION:    0.000000                    0.000000    
                                        CONSTANT HEAD:   0.1503648E+10              -0.1503435E+10
                                                WELLS:    0.000000                    0.000000    
                                             RECHARGE:    0.000000                    0.000000    
                               1ST/0TH ORDER REACTION:    0.000000                    0.000000    
                                MASS STORAGE (SOLUTE):   0.2101923E+09              -0.2104057E+09
                            ---------------------------------------------------------------------------
                                              [TOTAL]:   0.1713842E+10 KG           -0.1713843E+10 KG  

                                                          NET (IN - OUT):   -285.7312    
                                                   DISCREPANCY (PERCENT):  -0.1667196E-04



 >>>>>>>>>>>>>>>>>>>>>>>>>>>>>>>>>>>>>>>>>>>>>>>>>>>>>>>FOR COMPONENT NO. 02<<<<<<<<<<<<<<<<<<<<<<<<<<<<<<<<<<<<<<<<<<<<<<<<<<<<<<<


                                            -------------------------------------------
                                                      TRANSPORT STEP NO.  760
                                            -------------------------------------------

 TOTAL ELAPSED TIME SINCE BEGINNING OF SIMULATION =   38000.00    D   
 .....................................................................

                     CUMMULATIVE MASS BUDGETS AT END OF TRANSPORT STEP  760, TIME STEP    1, STRESS PERIOD    1
                     ------------------------------------------------------------------------------------------

                                                             IN                           OUT
                                                      ----------------             ----------------
                               CONSTANT CONCENTRATION:    0.000000                    0.000000    
                                        CONSTANT HEAD:    0.000000                  -0.3009654E+12
                                                WELLS:    0.000000                    0.000000    
                                             RECHARGE:    0.000000                    0.000000    
                               1ST/0TH ORDER REACTION:   0.6289000E+12                0.000000    
                                MASS STORAGE (SOLUTE):   0.1115411E+12              -0.4394758E+12
                            ---------------------------------------------------------------------------
                                              [TOTAL]:   0.7404427E+12 KG           -0.7404428E+12 KG  

                                                          NET (IN - OUT):   -100321.7    
                                                   DISCREPANCY (PERCENT):  -0.1354888E-04
 
 SOLVING FOR HEAD 


     2 CALLS TO PCG ROUTINE FOR TIME STEP   1 IN STRESS PERIOD    1
     9 TOTAL ITERATIONS

 MAXIMUM HEAD CHANGE FOR EACH ITERATION (1 INDICATES THE FIRST INNER ITERATION):

    HEAD CHANGE    HEAD CHANGE    HEAD CHANGE    HEAD CHANGE    HEAD CHANGE 
   LAYER,ROW,COL  LAYER,ROW,COL  LAYER,ROW,COL  LAYER,ROW,COL  LAYER,ROW,COL
 ---------------------------------------------------------------------------
  1  0.1349E-01  0 -0.3631E-02  0 -0.2314E-02  0 -0.8727E-02  0  0.8848E-02
   ( 15,  1, 86)  ( 17,  1, 89)  (  7,  1, 12)  (  9,  1, 49)  (  7,  1, 48)
  0  0.1429E-02  0 -0.1296E-02  0 -0.8655E-03  1  0.6813E-03
   ( 11,  1, 53)  ( 11,  1, 53)  ( 11,  1, 70)  ( 11,  1, 70)

 MAXIMUM RESIDUAL FOR EACH ITERATION (1 INDICATES THE FIRST INNER ITERATION):

    RESIDUAL       RESIDUAL       RESIDUAL       RESIDUAL       RESIDUAL    
   LAYER,ROW,COL  LAYER,ROW,COL  LAYER,ROW,COL  LAYER,ROW,COL  LAYER,ROW,COL
 ---------------------------------------------------------------------------
  1  0.1311E+06  0 -0.9197E+05  0 -0.8999E+05  0 -0.3819E+05  0  -5933.    
   ( 21,  1, 89)  ( 19,  1, 89)  ( 19,  1, 89)  ( 19,  1, 89)  ( 17,  1, 87)
  0   2890.      0   2407.      0   873.5      1   750.7    
   ( 22,  1, 87)  ( 22,  1, 87)  ( 22,  1, 87)  ( 22,  1, 87)


 FLOW MODEL IS TRANSIENT
 FLOW MODEL CONTAINS CONSTANT-HEAD CELLS


 MAXIMUM STEPSIZE DURING WHICH ANY PARTICLE CANNOT MOVE MORE THAN ONE CELL
 =  12.87    (WHEN MIN. R.F.=1)  AT K=  17, I=   1, J=  90

 MAXIMUM STEPSIZE WHICH MEETS STABILITY CRITERION OF THE ADVECTION TERM
 (FOR PURE FINITE-DIFFERENCE OPTION, MIXELM=0) 
 =  8.037    (WHEN MIN. R.F.=1)  AT K=  16, I=   1, J=  90


 TOTAL NUMBER OF POINT SOURCES/SINKS PRESENT IN THE FLOW MODEL =    30

 MAXIMUM STEPSIZE WHICH MEETS STABILITY CRITERION OF THE SINK & SOURCE TERM
 =  12.21    (WHEN MIN. R.F.=1)  AT K=  17, I=   1, J=  91

 MAXIMUM STEPSIZE WHICH MEETS STABILITY CRITERION OF THE DISPERSION TERM
 =  4.035    (WHEN MIN. R.F.=1)  AT K=  17, I=   1, J=  90
     1 CALLS TO GCG PACKAGE FOR TRANSPORT TIME STEP 761 IN FLOW TIME STEP   1 STRESS PERIOD   1
     8 TOTAL ITERATIONS
     1 CALLS TO GCG PACKAGE FOR TRANSPORT TIME STEP 761 IN FLOW TIME STEP   1 STRESS PERIOD   1
     8 TOTAL ITERATIONS
 
 SOLVING FOR HEAD 


     2 CALLS TO PCG ROUTINE FOR TIME STEP   1 IN STRESS PERIOD    1
     9 TOTAL ITERATIONS

 MAXIMUM HEAD CHANGE FOR EACH ITERATION (1 INDICATES THE FIRST INNER ITERATION):

    HEAD CHANGE    HEAD CHANGE    HEAD CHANGE    HEAD CHANGE    HEAD CHANGE 
   LAYER,ROW,COL  LAYER,ROW,COL  LAYER,ROW,COL  LAYER,ROW,COL  LAYER,ROW,COL
 ---------------------------------------------------------------------------
  1 -0.1349E-01  0  0.3627E-02  0  0.2356E-02  0  0.1077E-01  0 -0.1129E-01
   ( 15,  1, 86)  ( 17,  1, 89)  (  8,  1, 12)  ( 11,  1, 51)  ( 11,  1, 51)
  0 -0.1715E-02  0  0.1216E-02  0  0.5469E-03  1 -0.5966E-03
   ( 11,  1, 70)  ( 11,  1, 70)  ( 11,  1, 40)  ( 11,  1, 70)

 MAXIMUM RESIDUAL FOR EACH ITERATION (1 INDICATES THE FIRST INNER ITERATION):

    RESIDUAL       RESIDUAL       RESIDUAL       RESIDUAL       RESIDUAL    
   LAYER,ROW,COL  LAYER,ROW,COL  LAYER,ROW,COL  LAYER,ROW,COL  LAYER,ROW,COL
 ---------------------------------------------------------------------------
  1 -0.1311E+06  0  0.9195E+05  0  0.9046E+05  0  0.2901E+05  0   5429.    
   ( 21,  1, 89)  ( 19,  1, 89)  ( 19,  1, 89)  ( 19,  1, 89)  ( 17,  1, 87)
  0  -2872.      0  -2322.      0  -898.8      1  -781.4    
   ( 22,  1, 87)  ( 22,  1, 87)  ( 22,  1, 87)  ( 22,  1, 87)


 FLOW MODEL IS TRANSIENT
 FLOW MODEL CONTAINS CONSTANT-HEAD CELLS


 MAXIMUM STEPSIZE DURING WHICH ANY PARTICLE CANNOT MOVE MORE THAN ONE CELL
 =  13.20    (WHEN MIN. R.F.=1)  AT K=  17, I=   1, J=  90

 MAXIMUM STEPSIZE WHICH MEETS STABILITY CRITERION OF THE ADVECTION TERM
 (FOR PURE FINITE-DIFFERENCE OPTION, MIXELM=0) 
 =  8.001    (WHEN MIN. R.F.=1)  AT K=  16, I=   1, J=  90


 TOTAL NUMBER OF POINT SOURCES/SINKS PRESENT IN THE FLOW MODEL =    30

 MAXIMUM STEPSIZE WHICH MEETS STABILITY CRITERION OF THE SINK & SOURCE TERM
 =  12.16    (WHEN MIN. R.F.=1)  AT K=  17, I=   1, J=  91

 MAXIMUM STEPSIZE WHICH MEETS STABILITY CRITERION OF THE DISPERSION TERM
 =  4.350    (WHEN MIN. R.F.=1)  AT K=  17, I=   1, J=  90
     1 CALLS TO GCG PACKAGE FOR TRANSPORT TIME STEP 762 IN FLOW TIME STEP   1 STRESS PERIOD   1
     9 TOTAL ITERATIONS
     1 CALLS TO GCG PACKAGE FOR TRANSPORT TIME STEP 762 IN FLOW TIME STEP   1 STRESS PERIOD   1
     8 TOTAL ITERATIONS
 
 SOLVING FOR HEAD 


     2 CALLS TO PCG ROUTINE FOR TIME STEP   1 IN STRESS PERIOD    1
     9 TOTAL ITERATIONS

 MAXIMUM HEAD CHANGE FOR EACH ITERATION (1 INDICATES THE FIRST INNER ITERATION):

    HEAD CHANGE    HEAD CHANGE    HEAD CHANGE    HEAD CHANGE    HEAD CHANGE 
   LAYER,ROW,COL  LAYER,ROW,COL  LAYER,ROW,COL  LAYER,ROW,COL  LAYER,ROW,COL
 ---------------------------------------------------------------------------
  1  0.1349E-01  0 -0.3625E-02  0 -0.2328E-02  0 -0.8712E-02  0  0.8850E-02
   ( 15,  1, 86)  ( 17,  1, 89)  (  7,  1, 12)  (  8,  1, 49)  (  7,  1, 48)
  0  0.1460E-02  0 -0.1294E-02  0 -0.8745E-03  1  0.6785E-03
   ( 11,  1, 53)  ( 11,  1, 53)  ( 11,  1, 70)  ( 11,  1, 70)

 MAXIMUM RESIDUAL FOR EACH ITERATION (1 INDICATES THE FIRST INNER ITERATION):

    RESIDUAL       RESIDUAL       RESIDUAL       RESIDUAL       RESIDUAL    
   LAYER,ROW,COL  LAYER,ROW,COL  LAYER,ROW,COL  LAYER,ROW,COL  LAYER,ROW,COL
 ---------------------------------------------------------------------------
  1  0.1310E+06  0 -0.9187E+05  0 -0.8975E+05  0 -0.3880E+05  0  -5940.    
   ( 21,  1, 89)  ( 19,  1, 89)  ( 19,  1, 89)  ( 19,  1, 89)  ( 17,  1, 87)
  0   2890.      0   2414.      0   867.8      1   747.1    
   ( 22,  1, 87)  ( 22,  1, 87)  ( 22,  1, 87)  ( 22,  1, 87)


 FLOW MODEL IS TRANSIENT
 FLOW MODEL CONTAINS CONSTANT-HEAD CELLS


 MAXIMUM STEPSIZE DURING WHICH ANY PARTICLE CANNOT MOVE MORE THAN ONE CELL
 =  12.87    (WHEN MIN. R.F.=1)  AT K=  17, I=   1, J=  90

 MAXIMUM STEPSIZE WHICH MEETS STABILITY CRITERION OF THE ADVECTION TERM
 (FOR PURE FINITE-DIFFERENCE OPTION, MIXELM=0) 
 =  8.037    (WHEN MIN. R.F.=1)  AT K=  16, I=   1, J=  90


 TOTAL NUMBER OF POINT SOURCES/SINKS PRESENT IN THE FLOW MODEL =    30

 MAXIMUM STEPSIZE WHICH MEETS STABILITY CRITERION OF THE SINK & SOURCE TERM
 =  12.21    (WHEN MIN. R.F.=1)  AT K=  17, I=   1, J=  91

 MAXIMUM STEPSIZE WHICH MEETS STABILITY CRITERION OF THE DISPERSION TERM
 =  4.035    (WHEN MIN. R.F.=1)  AT K=  17, I=   1, J=  90
     1 CALLS TO GCG PACKAGE FOR TRANSPORT TIME STEP 763 IN FLOW TIME STEP   1 STRESS PERIOD   1
     8 TOTAL ITERATIONS
     1 CALLS TO GCG PACKAGE FOR TRANSPORT TIME STEP 763 IN FLOW TIME STEP   1 STRESS PERIOD   1
     8 TOTAL ITERATIONS
 
 SOLVING FOR HEAD 


     2 CALLS TO PCG ROUTINE FOR TIME STEP   1 IN STRESS PERIOD    1
     9 TOTAL ITERATIONS

 MAXIMUM HEAD CHANGE FOR EACH ITERATION (1 INDICATES THE FIRST INNER ITERATION):

    HEAD CHANGE    HEAD CHANGE    HEAD CHANGE    HEAD CHANGE    HEAD CHANGE 
   LAYER,ROW,COL  LAYER,ROW,COL  LAYER,ROW,COL  LAYER,ROW,COL  LAYER,ROW,COL
 ---------------------------------------------------------------------------
  1 -0.1349E-01  0  0.3620E-02  0  0.2353E-02  0  0.1079E-01  0 -0.1136E-01
   ( 15,  1, 86)  ( 17,  1, 89)  (  8,  1, 12)  ( 11,  1, 51)  ( 11,  1, 52)
  0 -0.1691E-02  0  0.1249E-02  0  0.5532E-03  1 -0.6057E-03
   ( 11,  1, 70)  ( 11,  1, 70)  ( 11,  1, 40)  ( 11,  1, 70)

 MAXIMUM RESIDUAL FOR EACH ITERATION (1 INDICATES THE FIRST INNER ITERATION):

    RESIDUAL       RESIDUAL       RESIDUAL       RESIDUAL       RESIDUAL    
   LAYER,ROW,COL  LAYER,ROW,COL  LAYER,ROW,COL  LAYER,ROW,COL  LAYER,ROW,COL
 ---------------------------------------------------------------------------
  1 -0.1310E+06  0  0.9186E+05  0  0.9036E+05  0  0.2896E+05  0   5427.    
   ( 21,  1, 89)  ( 19,  1, 89)  ( 19,  1, 89)  ( 19,  1, 89)  ( 17,  1, 87)
  0  -2873.      0  -2284.      0  -885.8      1  -767.5    
   ( 22,  1, 87)  ( 22,  1, 87)  ( 22,  1, 87)  ( 22,  1, 87)


 FLOW MODEL IS TRANSIENT
 FLOW MODEL CONTAINS CONSTANT-HEAD CELLS


 MAXIMUM STEPSIZE DURING WHICH ANY PARTICLE CANNOT MOVE MORE THAN ONE CELL
 =  13.20    (WHEN MIN. R.F.=1)  AT K=  17, I=   1, J=  90

 MAXIMUM STEPSIZE WHICH MEETS STABILITY CRITERION OF THE ADVECTION TERM
 (FOR PURE FINITE-DIFFERENCE OPTION, MIXELM=0) 
 =  8.001    (WHEN MIN. R.F.=1)  AT K=  16, I=   1, J=  90


 TOTAL NUMBER OF POINT SOURCES/SINKS PRESENT IN THE FLOW MODEL =    30

 MAXIMUM STEPSIZE WHICH MEETS STABILITY CRITERION OF THE SINK & SOURCE TERM
 =  12.16    (WHEN MIN. R.F.=1)  AT K=  17, I=   1, J=  91

 MAXIMUM STEPSIZE WHICH MEETS STABILITY CRITERION OF THE DISPERSION TERM
 =  4.349    (WHEN MIN. R.F.=1)  AT K=  17, I=   1, J=  90
     1 CALLS TO GCG PACKAGE FOR TRANSPORT TIME STEP 764 IN FLOW TIME STEP   1 STRESS PERIOD   1
     9 TOTAL ITERATIONS
     1 CALLS TO GCG PACKAGE FOR TRANSPORT TIME STEP 764 IN FLOW TIME STEP   1 STRESS PERIOD   1
     8 TOTAL ITERATIONS
 
 SOLVING FOR HEAD 


     2 CALLS TO PCG ROUTINE FOR TIME STEP   1 IN STRESS PERIOD    1
     9 TOTAL ITERATIONS

 MAXIMUM HEAD CHANGE FOR EACH ITERATION (1 INDICATES THE FIRST INNER ITERATION):

    HEAD CHANGE    HEAD CHANGE    HEAD CHANGE    HEAD CHANGE    HEAD CHANGE 
   LAYER,ROW,COL  LAYER,ROW,COL  LAYER,ROW,COL  LAYER,ROW,COL  LAYER,ROW,COL
 ---------------------------------------------------------------------------
  1  0.1349E-01  0 -0.3619E-02  0 -0.2341E-02  0 -0.8700E-02  0  0.8847E-02
   ( 15,  1, 86)  ( 17,  1, 89)  (  7,  1, 12)  ( 10,  1, 50)  (  6,  1, 48)
  0  0.1469E-02  0 -0.1296E-02  0 -0.8715E-03  1  0.6803E-03
   ( 11,  1, 53)  ( 11,  1, 53)  ( 11,  1, 70)  ( 11,  1, 70)

 MAXIMUM RESIDUAL FOR EACH ITERATION (1 INDICATES THE FIRST INNER ITERATION):

    RESIDUAL       RESIDUAL       RESIDUAL       RESIDUAL       RESIDUAL    
   LAYER,ROW,COL  LAYER,ROW,COL  LAYER,ROW,COL  LAYER,ROW,COL  LAYER,ROW,COL
 ---------------------------------------------------------------------------
  1  0.1309E+06  0 -0.9177E+05  0 -0.8955E+05  0 -0.3932E+05  0  -5943.    
   ( 21,  1, 89)  ( 19,  1, 89)  ( 19,  1, 89)  ( 19,  1, 89)  ( 17,  1, 87)
  0   2890.      0   2412.      0   859.5      1   740.3    
   ( 22,  1, 87)  ( 22,  1, 87)  ( 22,  1, 87)  ( 22,  1, 87)


 FLOW MODEL IS TRANSIENT
 FLOW MODEL CONTAINS CONSTANT-HEAD CELLS


 MAXIMUM STEPSIZE DURING WHICH ANY PARTICLE CANNOT MOVE MORE THAN ONE CELL
 =  12.87    (WHEN MIN. R.F.=1)  AT K=  17, I=   1, J=  90

 MAXIMUM STEPSIZE WHICH MEETS STABILITY CRITERION OF THE ADVECTION TERM
 (FOR PURE FINITE-DIFFERENCE OPTION, MIXELM=0) 
 =  8.036    (WHEN MIN. R.F.=1)  AT K=  16, I=   1, J=  90


 TOTAL NUMBER OF POINT SOURCES/SINKS PRESENT IN THE FLOW MODEL =    30

 MAXIMUM STEPSIZE WHICH MEETS STABILITY CRITERION OF THE SINK & SOURCE TERM
 =  12.21    (WHEN MIN. R.F.=1)  AT K=  17, I=   1, J=  91

 MAXIMUM STEPSIZE WHICH MEETS STABILITY CRITERION OF THE DISPERSION TERM
 =  4.035    (WHEN MIN. R.F.=1)  AT K=  17, I=   1, J=  90
     1 CALLS TO GCG PACKAGE FOR TRANSPORT TIME STEP 765 IN FLOW TIME STEP   1 STRESS PERIOD   1
     8 TOTAL ITERATIONS
  MAXIMUM CONCENTRATION CHANGES FOR EACH ITERATION:
  MAX. CHANGE LAYER,ROW,COL MAX. CHANGE LAYER,ROW,COL MAX. CHANGE LAYER,ROW,COL MAX. CHANGE LAYER,ROW,COL MAX. CHANGE LAYER,ROW,COL
 ------------------------------------------------------------------------------------------------------------------------------------
   0.5262E-01 ( 20,  1, 87)  0.4140E-02 ( 19,  1, 89)  0.2158E-02 ( 18,  1, 86)  0.4602E-03 ( 20,  1, 89)  0.9568E-04 ( 16,  1, 89)
   0.1996E-04 ( 20,  1, 89)  0.1666E-04 ( 16,  1, 90)  0.7545E-06 ( 17,  1, 90)
     1 CALLS TO GCG PACKAGE FOR TRANSPORT TIME STEP 765 IN FLOW TIME STEP   1 STRESS PERIOD   1
     8 TOTAL ITERATIONS
  MAXIMUM CONCENTRATION CHANGES FOR EACH ITERATION:
  MAX. CHANGE LAYER,ROW,COL MAX. CHANGE LAYER,ROW,COL MAX. CHANGE LAYER,ROW,COL MAX. CHANGE LAYER,ROW,COL MAX. CHANGE LAYER,ROW,COL
 ------------------------------------------------------------------------------------------------------------------------------------
   0.5633E-01 ( 20,  1, 87)  0.4495E-02 ( 19,  1, 89)  0.2128E-02 ( 18,  1, 86)  0.4273E-03 ( 20,  1, 89)  0.1029E-03 ( 16,  1, 89)
   0.1548E-04 ( 23,  1, 87)  0.1500E-04 ( 16,  1, 90)  0.8272E-06 ( 17,  1, 90)
 
 SOLVING FOR HEAD 


     2 CALLS TO PCG ROUTINE FOR TIME STEP   1 IN STRESS PERIOD    1
     9 TOTAL ITERATIONS

 MAXIMUM HEAD CHANGE FOR EACH ITERATION (1 INDICATES THE FIRST INNER ITERATION):

    HEAD CHANGE    HEAD CHANGE    HEAD CHANGE    HEAD CHANGE    HEAD CHANGE 
   LAYER,ROW,COL  LAYER,ROW,COL  LAYER,ROW,COL  LAYER,ROW,COL  LAYER,ROW,COL
 ---------------------------------------------------------------------------
  1 -0.1348E-01  0  0.3612E-02  0  0.2347E-02  0  0.1082E-01  0 -0.1141E-01
   ( 15,  1, 86)  ( 17,  1, 89)  (  8,  1, 12)  ( 11,  1, 51)  ( 11,  1, 52)
  0 -0.1660E-02  0  0.1277E-02  0  0.5564E-03  1 -0.6050E-03
   ( 11,  1, 70)  ( 11,  1, 70)  ( 11,  1, 40)  ( 11,  1, 70)

 MAXIMUM RESIDUAL FOR EACH ITERATION (1 INDICATES THE FIRST INNER ITERATION):

    RESIDUAL       RESIDUAL       RESIDUAL       RESIDUAL       RESIDUAL    
   LAYER,ROW,COL  LAYER,ROW,COL  LAYER,ROW,COL  LAYER,ROW,COL  LAYER,ROW,COL
 ---------------------------------------------------------------------------
  1 -0.1309E+06  0  0.9176E+05  0  0.9025E+05  0  0.2892E+05  0   5426.    
   ( 21,  1, 89)  ( 19,  1, 89)  ( 19,  1, 89)  ( 19,  1, 89)  ( 17,  1, 87)
  0  -2874.      0  -2250.      0  -875.3      1  -756.5    
   ( 22,  1, 87)  ( 22,  1, 87)  ( 22,  1, 87)  ( 22,  1, 87)


 FLOW MODEL IS TRANSIENT
 FLOW MODEL CONTAINS CONSTANT-HEAD CELLS


 MAXIMUM STEPSIZE DURING WHICH ANY PARTICLE CANNOT MOVE MORE THAN ONE CELL
 =  13.20    (WHEN MIN. R.F.=1)  AT K=  17, I=   1, J=  90

 MAXIMUM STEPSIZE WHICH MEETS STABILITY CRITERION OF THE ADVECTION TERM
 (FOR PURE FINITE-DIFFERENCE OPTION, MIXELM=0) 
 =  8.001    (WHEN MIN. R.F.=1)  AT K=  16, I=   1, J=  90


 TOTAL NUMBER OF POINT SOURCES/SINKS PRESENT IN THE FLOW MODEL =    30

 MAXIMUM STEPSIZE WHICH MEETS STABILITY CRITERION OF THE SINK & SOURCE TERM
 =  12.17    (WHEN MIN. R.F.=1)  AT K=  17, I=   1, J=  91

 MAXIMUM STEPSIZE WHICH MEETS STABILITY CRITERION OF THE DISPERSION TERM
 =  4.349    (WHEN MIN. R.F.=1)  AT K=  17, I=   1, J=  90
     1 CALLS TO GCG PACKAGE FOR TRANSPORT TIME STEP 766 IN FLOW TIME STEP   1 STRESS PERIOD   1
     9 TOTAL ITERATIONS
     1 CALLS TO GCG PACKAGE FOR TRANSPORT TIME STEP 766 IN FLOW TIME STEP   1 STRESS PERIOD   1
     8 TOTAL ITERATIONS
 
 SOLVING FOR HEAD 


     2 CALLS TO PCG ROUTINE FOR TIME STEP   1 IN STRESS PERIOD    1
     9 TOTAL ITERATIONS

 MAXIMUM HEAD CHANGE FOR EACH ITERATION (1 INDICATES THE FIRST INNER ITERATION):

    HEAD CHANGE    HEAD CHANGE    HEAD CHANGE    HEAD CHANGE    HEAD CHANGE 
   LAYER,ROW,COL  LAYER,ROW,COL  LAYER,ROW,COL  LAYER,ROW,COL  LAYER,ROW,COL
 ---------------------------------------------------------------------------
  1  0.1348E-01  0 -0.3612E-02  0 -0.2353E-02  0 -0.8678E-02  0  0.8838E-02
   ( 15,  1, 86)  ( 17,  1, 89)  (  7,  1, 12)  ( 10,  1, 50)  (  6,  1, 48)
  0  0.1462E-02  0 -0.1306E-02  0 -0.8582E-03  1  0.6863E-03
   ( 11,  1, 53)  ( 11,  1, 53)  ( 11,  1, 70)  ( 11,  1, 70)

 MAXIMUM RESIDUAL FOR EACH ITERATION (1 INDICATES THE FIRST INNER ITERATION):

    RESIDUAL       RESIDUAL       RESIDUAL       RESIDUAL       RESIDUAL    
   LAYER,ROW,COL  LAYER,ROW,COL  LAYER,ROW,COL  LAYER,ROW,COL  LAYER,ROW,COL
 ---------------------------------------------------------------------------
  1  0.1308E+06  0 -0.9167E+05  0 -0.8937E+05  0 -0.3965E+05  0  -5944.    
   ( 21,  1, 89)  ( 19,  1, 89)  ( 19,  1, 89)  ( 19,  1, 89)  ( 17,  1, 87)
  0   2891.      0   2401.      0   850.7      1   732.4    
   ( 22,  1, 87)  ( 22,  1, 87)  ( 22,  1, 87)  ( 22,  1, 87)


 FLOW MODEL IS TRANSIENT
 FLOW MODEL CONTAINS CONSTANT-HEAD CELLS


 MAXIMUM STEPSIZE DURING WHICH ANY PARTICLE CANNOT MOVE MORE THAN ONE CELL
 =  12.87    (WHEN MIN. R.F.=1)  AT K=  17, I=   1, J=  90

 MAXIMUM STEPSIZE WHICH MEETS STABILITY CRITERION OF THE ADVECTION TERM
 (FOR PURE FINITE-DIFFERENCE OPTION, MIXELM=0) 
 =  8.036    (WHEN MIN. R.F.=1)  AT K=  16, I=   1, J=  90


 TOTAL NUMBER OF POINT SOURCES/SINKS PRESENT IN THE FLOW MODEL =    30

 MAXIMUM STEPSIZE WHICH MEETS STABILITY CRITERION OF THE SINK & SOURCE TERM
 =  12.21    (WHEN MIN. R.F.=1)  AT K=  17, I=   1, J=  91

 MAXIMUM STEPSIZE WHICH MEETS STABILITY CRITERION OF THE DISPERSION TERM
 =  4.035    (WHEN MIN. R.F.=1)  AT K=  17, I=   1, J=  90
     1 CALLS TO GCG PACKAGE FOR TRANSPORT TIME STEP 767 IN FLOW TIME STEP   1 STRESS PERIOD   1
     8 TOTAL ITERATIONS
     1 CALLS TO GCG PACKAGE FOR TRANSPORT TIME STEP 767 IN FLOW TIME STEP   1 STRESS PERIOD   1
     8 TOTAL ITERATIONS
 
 SOLVING FOR HEAD 


     2 CALLS TO PCG ROUTINE FOR TIME STEP   1 IN STRESS PERIOD    1
     9 TOTAL ITERATIONS

 MAXIMUM HEAD CHANGE FOR EACH ITERATION (1 INDICATES THE FIRST INNER ITERATION):

    HEAD CHANGE    HEAD CHANGE    HEAD CHANGE    HEAD CHANGE    HEAD CHANGE 
   LAYER,ROW,COL  LAYER,ROW,COL  LAYER,ROW,COL  LAYER,ROW,COL  LAYER,ROW,COL
 ---------------------------------------------------------------------------
  1 -0.1348E-01  0  0.3605E-02  0  0.2343E-02  0  0.1090E-01  0 -0.1147E-01
   ( 15,  1, 86)  ( 17,  1, 89)  (  8,  1, 12)  ( 11,  1, 51)  ( 11,  1, 52)
  0 -0.1620E-02  0  0.1297E-02  0  0.5557E-03  1 -0.5969E-03
   ( 11,  1, 70)  ( 11,  1, 70)  ( 11,  1, 40)  ( 11,  1, 70)

 MAXIMUM RESIDUAL FOR EACH ITERATION (1 INDICATES THE FIRST INNER ITERATION):

    RESIDUAL       RESIDUAL       RESIDUAL       RESIDUAL       RESIDUAL    
   LAYER,ROW,COL  LAYER,ROW,COL  LAYER,ROW,COL  LAYER,ROW,COL  LAYER,ROW,COL
 ---------------------------------------------------------------------------
  1 -0.1308E+06  0  0.9168E+05  0  0.9015E+05  0  0.2890E+05  0   5425.    
   ( 21,  1, 89)  ( 19,  1, 89)  ( 19,  1, 89)  ( 19,  1, 89)  ( 17,  1, 87)
  0  -2875.      0  -2223.      0  -866.4      1  -747.6    
   ( 22,  1, 87)  ( 22,  1, 87)  ( 22,  1, 87)  ( 22,  1, 87)


 FLOW MODEL IS TRANSIENT
 FLOW MODEL CONTAINS CONSTANT-HEAD CELLS


 MAXIMUM STEPSIZE DURING WHICH ANY PARTICLE CANNOT MOVE MORE THAN ONE CELL
 =  13.20    (WHEN MIN. R.F.=1)  AT K=  17, I=   1, J=  90

 MAXIMUM STEPSIZE WHICH MEETS STABILITY CRITERION OF THE ADVECTION TERM
 (FOR PURE FINITE-DIFFERENCE OPTION, MIXELM=0) 
 =  8.001    (WHEN MIN. R.F.=1)  AT K=  16, I=   1, J=  90


 TOTAL NUMBER OF POINT SOURCES/SINKS PRESENT IN THE FLOW MODEL =    30

 MAXIMUM STEPSIZE WHICH MEETS STABILITY CRITERION OF THE SINK & SOURCE TERM
 =  12.17    (WHEN MIN. R.F.=1)  AT K=  17, I=   1, J=  91

 MAXIMUM STEPSIZE WHICH MEETS STABILITY CRITERION OF THE DISPERSION TERM
 =  4.349    (WHEN MIN. R.F.=1)  AT K=  17, I=   1, J=  90
     1 CALLS TO GCG PACKAGE FOR TRANSPORT TIME STEP 768 IN FLOW TIME STEP   1 STRESS PERIOD   1
     9 TOTAL ITERATIONS
     1 CALLS TO GCG PACKAGE FOR TRANSPORT TIME STEP 768 IN FLOW TIME STEP   1 STRESS PERIOD   1
     8 TOTAL ITERATIONS
 
 SOLVING FOR HEAD 


     2 CALLS TO PCG ROUTINE FOR TIME STEP   1 IN STRESS PERIOD    1
     9 TOTAL ITERATIONS

 MAXIMUM HEAD CHANGE FOR EACH ITERATION (1 INDICATES THE FIRST INNER ITERATION):

    HEAD CHANGE    HEAD CHANGE    HEAD CHANGE    HEAD CHANGE    HEAD CHANGE 
   LAYER,ROW,COL  LAYER,ROW,COL  LAYER,ROW,COL  LAYER,ROW,COL  LAYER,ROW,COL
 ---------------------------------------------------------------------------
  1  0.1348E-01  0 -0.3607E-02  0 -0.2366E-02  0 -0.8644E-02  0  0.8824E-02
   ( 15,  1, 86)  ( 17,  1, 89)  (  7,  1, 12)  ( 10,  1, 50)  (  6,  1, 48)
  0  0.1454E-02  0 -0.1324E-02  0 -0.8355E-03  1  0.6926E-03
   ( 11,  1, 53)  ( 11,  1, 53)  ( 11,  1, 70)  ( 11,  1, 70)

 MAXIMUM RESIDUAL FOR EACH ITERATION (1 INDICATES THE FIRST INNER ITERATION):

    RESIDUAL       RESIDUAL       RESIDUAL       RESIDUAL       RESIDUAL    
   LAYER,ROW,COL  LAYER,ROW,COL  LAYER,ROW,COL  LAYER,ROW,COL  LAYER,ROW,COL
 ---------------------------------------------------------------------------
  1  0.1307E+06  0 -0.9160E+05  0 -0.8921E+05  0 -0.3983E+05  0  -5943.    
   ( 21,  1, 89)  ( 19,  1, 89)  ( 19,  1, 89)  ( 19,  1, 89)  ( 17,  1, 87)
  0   2892.      0   2387.      0   843.0      1   725.2    
   ( 22,  1, 87)  ( 22,  1, 87)  ( 22,  1, 87)  ( 22,  1, 87)


 FLOW MODEL IS TRANSIENT
 FLOW MODEL CONTAINS CONSTANT-HEAD CELLS


 MAXIMUM STEPSIZE DURING WHICH ANY PARTICLE CANNOT MOVE MORE THAN ONE CELL
 =  12.87    (WHEN MIN. R.F.=1)  AT K=  17, I=   1, J=  90

 MAXIMUM STEPSIZE WHICH MEETS STABILITY CRITERION OF THE ADVECTION TERM
 (FOR PURE FINITE-DIFFERENCE OPTION, MIXELM=0) 
 =  8.036    (WHEN MIN. R.F.=1)  AT K=  16, I=   1, J=  90


 TOTAL NUMBER OF POINT SOURCES/SINKS PRESENT IN THE FLOW MODEL =    30

 MAXIMUM STEPSIZE WHICH MEETS STABILITY CRITERION OF THE SINK & SOURCE TERM
 =  12.21    (WHEN MIN. R.F.=1)  AT K=  17, I=   1, J=  91

 MAXIMUM STEPSIZE WHICH MEETS STABILITY CRITERION OF THE DISPERSION TERM
 =  4.035    (WHEN MIN. R.F.=1)  AT K=  17, I=   1, J=  90
     1 CALLS TO GCG PACKAGE FOR TRANSPORT TIME STEP 769 IN FLOW TIME STEP   1 STRESS PERIOD   1
     8 TOTAL ITERATIONS
     1 CALLS TO GCG PACKAGE FOR TRANSPORT TIME STEP 769 IN FLOW TIME STEP   1 STRESS PERIOD   1
     8 TOTAL ITERATIONS
 
 SOLVING FOR HEAD 


     2 CALLS TO PCG ROUTINE FOR TIME STEP   1 IN STRESS PERIOD    1
     9 TOTAL ITERATIONS

 MAXIMUM HEAD CHANGE FOR EACH ITERATION (1 INDICATES THE FIRST INNER ITERATION):

    HEAD CHANGE    HEAD CHANGE    HEAD CHANGE    HEAD CHANGE    HEAD CHANGE 
   LAYER,ROW,COL  LAYER,ROW,COL  LAYER,ROW,COL  LAYER,ROW,COL  LAYER,ROW,COL
 ---------------------------------------------------------------------------
  1 -0.1347E-01  0  0.3599E-02  0  0.2339E-02  0  0.1103E-01  0 -0.1155E-01
   ( 15,  1, 86)  ( 17,  1, 89)  (  8,  1, 12)  ( 11,  1, 51)  ( 11,  1, 52)
  0 -0.1573E-02  0  0.1308E-02  0  0.5492E-03  1 -0.5826E-03
   ( 11,  1, 70)  ( 11,  1, 70)  ( 11,  1, 40)  ( 11,  1, 70)

 MAXIMUM RESIDUAL FOR EACH ITERATION (1 INDICATES THE FIRST INNER ITERATION):

    RESIDUAL       RESIDUAL       RESIDUAL       RESIDUAL       RESIDUAL    
   LAYER,ROW,COL  LAYER,ROW,COL  LAYER,ROW,COL  LAYER,ROW,COL  LAYER,ROW,COL
 ---------------------------------------------------------------------------
  1 -0.1307E+06  0  0.9160E+05  0  0.9006E+05  0  0.2886E+05  0   5422.    
   ( 21,  1, 89)  ( 19,  1, 89)  ( 19,  1, 89)  ( 19,  1, 89)  ( 17,  1, 87)
  0  -2876.      0  -2205.      0  -859.2      1  -740.5    
   ( 22,  1, 87)  ( 22,  1, 87)  ( 22,  1, 87)  ( 22,  1, 87)


 FLOW MODEL IS TRANSIENT
 FLOW MODEL CONTAINS CONSTANT-HEAD CELLS


 MAXIMUM STEPSIZE DURING WHICH ANY PARTICLE CANNOT MOVE MORE THAN ONE CELL
 =  13.20    (WHEN MIN. R.F.=1)  AT K=  17, I=   1, J=  90

 MAXIMUM STEPSIZE WHICH MEETS STABILITY CRITERION OF THE ADVECTION TERM
 (FOR PURE FINITE-DIFFERENCE OPTION, MIXELM=0) 
 =  8.001    (WHEN MIN. R.F.=1)  AT K=  16, I=   1, J=  90


 TOTAL NUMBER OF POINT SOURCES/SINKS PRESENT IN THE FLOW MODEL =    30

 MAXIMUM STEPSIZE WHICH MEETS STABILITY CRITERION OF THE SINK & SOURCE TERM
 =  12.17    (WHEN MIN. R.F.=1)  AT K=  17, I=   1, J=  91

 MAXIMUM STEPSIZE WHICH MEETS STABILITY CRITERION OF THE DISPERSION TERM
 =  4.348    (WHEN MIN. R.F.=1)  AT K=  17, I=   1, J=  90
     1 CALLS TO GCG PACKAGE FOR TRANSPORT TIME STEP 770 IN FLOW TIME STEP   1 STRESS PERIOD   1
     9 TOTAL ITERATIONS
  MAXIMUM CONCENTRATION CHANGES FOR EACH ITERATION:
  MAX. CHANGE LAYER,ROW,COL MAX. CHANGE LAYER,ROW,COL MAX. CHANGE LAYER,ROW,COL MAX. CHANGE LAYER,ROW,COL MAX. CHANGE LAYER,ROW,COL
 ------------------------------------------------------------------------------------------------------------------------------------
   0.4937E-01 ( 20,  1, 87)  0.3299E-02 ( 19,  1, 87)  0.2211E-02 ( 18,  1, 87)  0.2151E-03 ( 16,  1, 88)  0.1403E-03 ( 16,  1, 89)
   0.2963E-04 ( 16,  1, 90)  0.1875E-05 ( 21,  1, 78)  0.2874E-05 ( 21,  1, 78)  0.7276E-06 ( 16,  1, 89)
     1 CALLS TO GCG PACKAGE FOR TRANSPORT TIME STEP 770 IN FLOW TIME STEP   1 STRESS PERIOD   1
     8 TOTAL ITERATIONS
  MAXIMUM CONCENTRATION CHANGES FOR EACH ITERATION:
  MAX. CHANGE LAYER,ROW,COL MAX. CHANGE LAYER,ROW,COL MAX. CHANGE LAYER,ROW,COL MAX. CHANGE LAYER,ROW,COL MAX. CHANGE LAYER,ROW,COL
 ------------------------------------------------------------------------------------------------------------------------------------
   0.5239E-01 ( 20,  1, 87)  0.3454E-02 ( 19,  1, 87)  0.2271E-02 ( 18,  1, 87)  0.2142E-03 ( 16,  1, 88)  0.1328E-03 ( 16,  1, 89)
   0.3252E-04 ( 16,  1, 90)  0.4817E-05 ( 17,  1, 90)  0.5437E-06 ( 16,  1, 89)



 >>>>>>>>>>>>>>>>>>>>>>>>>>>>>>>>>>>>>>>>>>>>>>>>>>>>>>>FOR COMPONENT NO. 01<<<<<<<<<<<<<<<<<<<<<<<<<<<<<<<<<<<<<<<<<<<<<<<<<<<<<<<


                                            -------------------------------------------
                                                      TRANSPORT STEP NO.  770
                                            -------------------------------------------

 TOTAL ELAPSED TIME SINCE BEGINNING OF SIMULATION =   38500.00    D   
 .....................................................................

                     CUMMULATIVE MASS BUDGETS AT END OF TRANSPORT STEP  770, TIME STEP    1, STRESS PERIOD    1
                     ------------------------------------------------------------------------------------------

                                                             IN                           OUT
                                                      ----------------             ----------------
                               CONSTANT CONCENTRATION:    0.000000                    0.000000    
                                        CONSTANT HEAD:   0.1523424E+10              -0.1523209E+10
                                                WELLS:    0.000000                    0.000000    
                                             RECHARGE:    0.000000                    0.000000    
                               1ST/0TH ORDER REACTION:    0.000000                    0.000000    
                                MASS STORAGE (SOLUTE):   0.2129394E+09              -0.2131549E+09
                            ---------------------------------------------------------------------------
                                              [TOTAL]:   0.1736365E+10 KG           -0.1736365E+10 KG  

                                                          NET (IN - OUT):   -278.0468    
                                                   DISCREPANCY (PERCENT):  -0.1601315E-04



 >>>>>>>>>>>>>>>>>>>>>>>>>>>>>>>>>>>>>>>>>>>>>>>>>>>>>>>FOR COMPONENT NO. 02<<<<<<<<<<<<<<<<<<<<<<<<<<<<<<<<<<<<<<<<<<<<<<<<<<<<<<<


                                            -------------------------------------------
                                                      TRANSPORT STEP NO.  770
                                            -------------------------------------------

 TOTAL ELAPSED TIME SINCE BEGINNING OF SIMULATION =   38500.00    D   
 .....................................................................

                     CUMMULATIVE MASS BUDGETS AT END OF TRANSPORT STEP  770, TIME STEP    1, STRESS PERIOD    1
                     ------------------------------------------------------------------------------------------

                                                             IN                           OUT
                                                      ----------------             ----------------
                               CONSTANT CONCENTRATION:    0.000000                    0.000000    
                                        CONSTANT HEAD:    0.000000                  -0.3074650E+12
                                                WELLS:    0.000000                    0.000000    
                                             RECHARGE:    0.000000                    0.000000    
                               1ST/0TH ORDER REACTION:   0.6371750E+12                0.000000    
                                MASS STORAGE (SOLUTE):   0.1144668E+12              -0.4441769E+12
                            ---------------------------------------------------------------------------
                                              [TOTAL]:   0.7516434E+12 KG           -0.7516435E+12 KG  

                                                          NET (IN - OUT):   -101428.4    
                                                   DISCREPANCY (PERCENT):  -0.1349422E-04
 
 SOLVING FOR HEAD 


     2 CALLS TO PCG ROUTINE FOR TIME STEP   1 IN STRESS PERIOD    1
     9 TOTAL ITERATIONS

 MAXIMUM HEAD CHANGE FOR EACH ITERATION (1 INDICATES THE FIRST INNER ITERATION):

    HEAD CHANGE    HEAD CHANGE    HEAD CHANGE    HEAD CHANGE    HEAD CHANGE 
   LAYER,ROW,COL  LAYER,ROW,COL  LAYER,ROW,COL  LAYER,ROW,COL  LAYER,ROW,COL
 ---------------------------------------------------------------------------
  1  0.1348E-01  0 -0.3601E-02  0 -0.2380E-02  0 -0.8597E-02  0  0.8804E-02
   ( 15,  1, 86)  ( 17,  1, 89)  (  7,  1, 12)  ( 10,  1, 50)  (  6,  1, 48)
  0  0.1451E-02  0 -0.1346E-02  0 -0.7983E-03  1  0.6961E-03
   ( 11,  1, 53)  ( 11,  1, 53)  ( 11,  1, 70)  ( 11,  1, 70)

 MAXIMUM RESIDUAL FOR EACH ITERATION (1 INDICATES THE FIRST INNER ITERATION):

    RESIDUAL       RESIDUAL       RESIDUAL       RESIDUAL       RESIDUAL    
   LAYER,ROW,COL  LAYER,ROW,COL  LAYER,ROW,COL  LAYER,ROW,COL  LAYER,ROW,COL
 ---------------------------------------------------------------------------
  1  0.1306E+06  0 -0.9153E+05  0 -0.8905E+05  0 -0.3990E+05  0  -5941.    
   ( 21,  1, 89)  ( 19,  1, 89)  ( 19,  1, 89)  ( 19,  1, 89)  ( 17,  1, 87)
  0   2893.      0   2372.      0   836.9      1   719.4    
   ( 22,  1, 87)  ( 22,  1, 87)  ( 22,  1, 87)  ( 22,  1, 87)


 FLOW MODEL IS TRANSIENT
 FLOW MODEL CONTAINS CONSTANT-HEAD CELLS


 MAXIMUM STEPSIZE DURING WHICH ANY PARTICLE CANNOT MOVE MORE THAN ONE CELL
 =  12.87    (WHEN MIN. R.F.=1)  AT K=  17, I=   1, J=  90

 MAXIMUM STEPSIZE WHICH MEETS STABILITY CRITERION OF THE ADVECTION TERM
 (FOR PURE FINITE-DIFFERENCE OPTION, MIXELM=0) 
 =  8.036    (WHEN MIN. R.F.=1)  AT K=  16, I=   1, J=  90


 TOTAL NUMBER OF POINT SOURCES/SINKS PRESENT IN THE FLOW MODEL =    30

 MAXIMUM STEPSIZE WHICH MEETS STABILITY CRITERION OF THE SINK & SOURCE TERM
 =  12.21    (WHEN MIN. R.F.=1)  AT K=  17, I=   1, J=  91

 MAXIMUM STEPSIZE WHICH MEETS STABILITY CRITERION OF THE DISPERSION TERM
 =  4.035    (WHEN MIN. R.F.=1)  AT K=  17, I=   1, J=  90
     1 CALLS TO GCG PACKAGE FOR TRANSPORT TIME STEP 771 IN FLOW TIME STEP   1 STRESS PERIOD   1
     8 TOTAL ITERATIONS
     1 CALLS TO GCG PACKAGE FOR TRANSPORT TIME STEP 771 IN FLOW TIME STEP   1 STRESS PERIOD   1
     8 TOTAL ITERATIONS
 
 SOLVING FOR HEAD 


     2 CALLS TO PCG ROUTINE FOR TIME STEP   1 IN STRESS PERIOD    1
     9 TOTAL ITERATIONS

 MAXIMUM HEAD CHANGE FOR EACH ITERATION (1 INDICATES THE FIRST INNER ITERATION):

    HEAD CHANGE    HEAD CHANGE    HEAD CHANGE    HEAD CHANGE    HEAD CHANGE 
   LAYER,ROW,COL  LAYER,ROW,COL  LAYER,ROW,COL  LAYER,ROW,COL  LAYER,ROW,COL
 ---------------------------------------------------------------------------
  1 -0.1347E-01  0  0.3594E-02  0  0.2337E-02  0  0.1125E-01  0 -0.1175E-01
   ( 15,  1, 86)  ( 17,  1, 89)  (  8,  1, 12)  ( 11,  1, 51)  ( 11,  1, 51)
  0  0.1547E-02  0  0.1295E-02  0  0.5301E-03  1 -0.5581E-03
   ( 11,  1, 53)  ( 11,  1, 70)  ( 11,  1, 40)  ( 11,  1, 70)

 MAXIMUM RESIDUAL FOR EACH ITERATION (1 INDICATES THE FIRST INNER ITERATION):

    RESIDUAL       RESIDUAL       RESIDUAL       RESIDUAL       RESIDUAL    
   LAYER,ROW,COL  LAYER,ROW,COL  LAYER,ROW,COL  LAYER,ROW,COL  LAYER,ROW,COL
 ---------------------------------------------------------------------------
  1 -0.1306E+06  0  0.9154E+05  0  0.8999E+05  0  0.2872E+05  0   5415.    
   ( 21,  1, 89)  ( 19,  1, 89)  ( 19,  1, 89)  ( 19,  1, 89)  ( 17,  1, 87)
  0  -2876.      0  -2205.      0  -854.1      1  -735.5    
   ( 22,  1, 87)  ( 22,  1, 87)  ( 22,  1, 87)  ( 22,  1, 87)


 FLOW MODEL IS TRANSIENT
 FLOW MODEL CONTAINS CONSTANT-HEAD CELLS


 MAXIMUM STEPSIZE DURING WHICH ANY PARTICLE CANNOT MOVE MORE THAN ONE CELL
 =  13.20    (WHEN MIN. R.F.=1)  AT K=  17, I=   1, J=  90

 MAXIMUM STEPSIZE WHICH MEETS STABILITY CRITERION OF THE ADVECTION TERM
 (FOR PURE FINITE-DIFFERENCE OPTION, MIXELM=0) 
 =  8.001    (WHEN MIN. R.F.=1)  AT K=  16, I=   1, J=  90


 TOTAL NUMBER OF POINT SOURCES/SINKS PRESENT IN THE FLOW MODEL =    30

 MAXIMUM STEPSIZE WHICH MEETS STABILITY CRITERION OF THE SINK & SOURCE TERM
 =  12.17    (WHEN MIN. R.F.=1)  AT K=  17, I=   1, J=  91

 MAXIMUM STEPSIZE WHICH MEETS STABILITY CRITERION OF THE DISPERSION TERM
 =  4.348    (WHEN MIN. R.F.=1)  AT K=  17, I=   1, J=  90
     1 CALLS TO GCG PACKAGE FOR TRANSPORT TIME STEP 772 IN FLOW TIME STEP   1 STRESS PERIOD   1
     9 TOTAL ITERATIONS
     1 CALLS TO GCG PACKAGE FOR TRANSPORT TIME STEP 772 IN FLOW TIME STEP   1 STRESS PERIOD   1
     8 TOTAL ITERATIONS
 
 SOLVING FOR HEAD 


     2 CALLS TO PCG ROUTINE FOR TIME STEP   1 IN STRESS PERIOD    1
     9 TOTAL ITERATIONS

 MAXIMUM HEAD CHANGE FOR EACH ITERATION (1 INDICATES THE FIRST INNER ITERATION):

    HEAD CHANGE    HEAD CHANGE    HEAD CHANGE    HEAD CHANGE    HEAD CHANGE 
   LAYER,ROW,COL  LAYER,ROW,COL  LAYER,ROW,COL  LAYER,ROW,COL  LAYER,ROW,COL
 ---------------------------------------------------------------------------
  1  0.1348E-01  0 -0.3597E-02  0 -0.2393E-02  0 -0.8526E-02  0  0.8772E-02
   ( 15,  1, 86)  ( 17,  1, 89)  (  7,  1, 12)  ( 10,  1, 50)  (  6,  1, 48)
  0  0.1447E-02  0 -0.1352E-02  0 -0.7325E-03  1  0.6914E-03
   ( 11,  1, 53)  ( 11,  1, 53)  ( 11,  1, 70)  ( 11,  1, 70)

 MAXIMUM RESIDUAL FOR EACH ITERATION (1 INDICATES THE FIRST INNER ITERATION):

    RESIDUAL       RESIDUAL       RESIDUAL       RESIDUAL       RESIDUAL    
   LAYER,ROW,COL  LAYER,ROW,COL  LAYER,ROW,COL  LAYER,ROW,COL  LAYER,ROW,COL
 ---------------------------------------------------------------------------
  1  0.1306E+06  0 -0.9148E+05  0 -0.8892E+05  0 -0.3983E+05  0  -5938.    
   ( 21,  1, 89)  ( 19,  1, 89)  ( 19,  1, 89)  ( 19,  1, 89)  ( 17,  1, 87)
  0   2894.      0   2361.      0   833.8      1   716.2    
   ( 22,  1, 87)  ( 22,  1, 87)  ( 22,  1, 87)  ( 22,  1, 87)


 FLOW MODEL IS TRANSIENT
 FLOW MODEL CONTAINS CONSTANT-HEAD CELLS


 MAXIMUM STEPSIZE DURING WHICH ANY PARTICLE CANNOT MOVE MORE THAN ONE CELL
 =  12.87    (WHEN MIN. R.F.=1)  AT K=  17, I=   1, J=  90

 MAXIMUM STEPSIZE WHICH MEETS STABILITY CRITERION OF THE ADVECTION TERM
 (FOR PURE FINITE-DIFFERENCE OPTION, MIXELM=0) 
 =  8.036    (WHEN MIN. R.F.=1)  AT K=  16, I=   1, J=  90


 TOTAL NUMBER OF POINT SOURCES/SINKS PRESENT IN THE FLOW MODEL =    30

 MAXIMUM STEPSIZE WHICH MEETS STABILITY CRITERION OF THE SINK & SOURCE TERM
 =  12.21    (WHEN MIN. R.F.=1)  AT K=  17, I=   1, J=  91

 MAXIMUM STEPSIZE WHICH MEETS STABILITY CRITERION OF THE DISPERSION TERM
 =  4.035    (WHEN MIN. R.F.=1)  AT K=  17, I=   1, J=  90
     1 CALLS TO GCG PACKAGE FOR TRANSPORT TIME STEP 773 IN FLOW TIME STEP   1 STRESS PERIOD   1
     8 TOTAL ITERATIONS
     1 CALLS TO GCG PACKAGE FOR TRANSPORT TIME STEP 773 IN FLOW TIME STEP   1 STRESS PERIOD   1
     8 TOTAL ITERATIONS
 
 SOLVING FOR HEAD 


     2 CALLS TO PCG ROUTINE FOR TIME STEP   1 IN STRESS PERIOD    1
     9 TOTAL ITERATIONS

 MAXIMUM HEAD CHANGE FOR EACH ITERATION (1 INDICATES THE FIRST INNER ITERATION):

    HEAD CHANGE    HEAD CHANGE    HEAD CHANGE    HEAD CHANGE    HEAD CHANGE 
   LAYER,ROW,COL  LAYER,ROW,COL  LAYER,ROW,COL  LAYER,ROW,COL  LAYER,ROW,COL
 ---------------------------------------------------------------------------
  1 -0.1347E-01  0  0.3591E-02  0  0.2335E-02  0  0.1161E-01  0 -0.1211E-01
   ( 15,  1, 86)  ( 17,  1, 89)  (  8,  1, 12)  ( 11,  1, 50)  ( 11,  1, 51)
  0  0.1594E-02  0  0.1226E-02  0  0.4811E-03  1 -0.5189E-03
   ( 11,  1, 53)  ( 11,  1, 70)  ( 11,  1, 40)  ( 11,  1, 70)

 MAXIMUM RESIDUAL FOR EACH ITERATION (1 INDICATES THE FIRST INNER ITERATION):

    RESIDUAL       RESIDUAL       RESIDUAL       RESIDUAL       RESIDUAL    
   LAYER,ROW,COL  LAYER,ROW,COL  LAYER,ROW,COL  LAYER,ROW,COL  LAYER,ROW,COL
 ---------------------------------------------------------------------------
  1 -0.1306E+06  0  0.9149E+05  0  0.8994E+05  0  0.2831E+05  0   5396.    
   ( 21,  1, 89)  ( 19,  1, 89)  ( 19,  1, 89)  ( 19,  1, 89)  ( 17,  1, 87)
  0  -2876.      0  -2253.      0  -852.7      1  -734.2    
   ( 22,  1, 87)  ( 22,  1, 87)  ( 22,  1, 87)  ( 22,  1, 87)


 FLOW MODEL IS TRANSIENT
 FLOW MODEL CONTAINS CONSTANT-HEAD CELLS


 MAXIMUM STEPSIZE DURING WHICH ANY PARTICLE CANNOT MOVE MORE THAN ONE CELL
 =  13.20    (WHEN MIN. R.F.=1)  AT K=  17, I=   1, J=  90

 MAXIMUM STEPSIZE WHICH MEETS STABILITY CRITERION OF THE ADVECTION TERM
 (FOR PURE FINITE-DIFFERENCE OPTION, MIXELM=0) 
 =  8.001    (WHEN MIN. R.F.=1)  AT K=  16, I=   1, J=  90


 TOTAL NUMBER OF POINT SOURCES/SINKS PRESENT IN THE FLOW MODEL =    30

 MAXIMUM STEPSIZE WHICH MEETS STABILITY CRITERION OF THE SINK & SOURCE TERM
 =  12.17    (WHEN MIN. R.F.=1)  AT K=  17, I=   1, J=  91

 MAXIMUM STEPSIZE WHICH MEETS STABILITY CRITERION OF THE DISPERSION TERM
 =  4.348    (WHEN MIN. R.F.=1)  AT K=  17, I=   1, J=  90
     1 CALLS TO GCG PACKAGE FOR TRANSPORT TIME STEP 774 IN FLOW TIME STEP   1 STRESS PERIOD   1
     9 TOTAL ITERATIONS
     1 CALLS TO GCG PACKAGE FOR TRANSPORT TIME STEP 774 IN FLOW TIME STEP   1 STRESS PERIOD   1
     8 TOTAL ITERATIONS
 
 SOLVING FOR HEAD 


     2 CALLS TO PCG ROUTINE FOR TIME STEP   1 IN STRESS PERIOD    1
     9 TOTAL ITERATIONS

 MAXIMUM HEAD CHANGE FOR EACH ITERATION (1 INDICATES THE FIRST INNER ITERATION):

    HEAD CHANGE    HEAD CHANGE    HEAD CHANGE    HEAD CHANGE    HEAD CHANGE 
   LAYER,ROW,COL  LAYER,ROW,COL  LAYER,ROW,COL  LAYER,ROW,COL  LAYER,ROW,COL
 ---------------------------------------------------------------------------
  1  0.1347E-01  0 -0.3595E-02  0 -0.2404E-02  0 -0.8398E-02  0  0.8704E-02
   ( 15,  1, 86)  ( 17,  1, 89)  (  7,  1, 12)  ( 10,  1, 50)  (  7,  1, 48)
  0  0.1440E-02  0 -0.1277E-02  0 -0.6487E-03  1  0.6645E-03
   ( 11,  1, 52)  ( 11,  1, 53)  ( 11,  1, 59)  ( 11,  1, 70)

 MAXIMUM RESIDUAL FOR EACH ITERATION (1 INDICATES THE FIRST INNER ITERATION):

    RESIDUAL       RESIDUAL       RESIDUAL       RESIDUAL       RESIDUAL    
   LAYER,ROW,COL  LAYER,ROW,COL  LAYER,ROW,COL  LAYER,ROW,COL  LAYER,ROW,COL
 ---------------------------------------------------------------------------
  1  0.1305E+06  0 -0.9145E+05  0 -0.8882E+05  0 -0.3943E+05  0  -5933.    
   ( 21,  1, 89)  ( 19,  1, 89)  ( 19,  1, 89)  ( 19,  1, 89)  ( 17,  1, 87)
  0   2893.      0   2376.      0   837.8      1   719.0    
   ( 22,  1, 87)  ( 22,  1, 87)  ( 22,  1, 87)  ( 22,  1, 87)


 FLOW MODEL IS TRANSIENT
 FLOW MODEL CONTAINS CONSTANT-HEAD CELLS


 MAXIMUM STEPSIZE DURING WHICH ANY PARTICLE CANNOT MOVE MORE THAN ONE CELL
 =  12.87    (WHEN MIN. R.F.=1)  AT K=  17, I=   1, J=  90

 MAXIMUM STEPSIZE WHICH MEETS STABILITY CRITERION OF THE ADVECTION TERM
 (FOR PURE FINITE-DIFFERENCE OPTION, MIXELM=0) 
 =  8.036    (WHEN MIN. R.F.=1)  AT K=  16, I=   1, J=  90


 TOTAL NUMBER OF POINT SOURCES/SINKS PRESENT IN THE FLOW MODEL =    30

 MAXIMUM STEPSIZE WHICH MEETS STABILITY CRITERION OF THE SINK & SOURCE TERM
 =  12.21    (WHEN MIN. R.F.=1)  AT K=  17, I=   1, J=  91

 MAXIMUM STEPSIZE WHICH MEETS STABILITY CRITERION OF THE DISPERSION TERM
 =  4.035    (WHEN MIN. R.F.=1)  AT K=  17, I=   1, J=  90
     1 CALLS TO GCG PACKAGE FOR TRANSPORT TIME STEP 775 IN FLOW TIME STEP   1 STRESS PERIOD   1
     8 TOTAL ITERATIONS
  MAXIMUM CONCENTRATION CHANGES FOR EACH ITERATION:
  MAX. CHANGE LAYER,ROW,COL MAX. CHANGE LAYER,ROW,COL MAX. CHANGE LAYER,ROW,COL MAX. CHANGE LAYER,ROW,COL MAX. CHANGE LAYER,ROW,COL
 ------------------------------------------------------------------------------------------------------------------------------------
   0.5262E-01 ( 20,  1, 87)  0.4126E-02 ( 19,  1, 89)  0.2160E-02 ( 18,  1, 86)  0.4576E-03 ( 20,  1, 89)  0.9556E-04 ( 16,  1, 89)
   0.1993E-04 ( 20,  1, 89)  0.1647E-04 ( 16,  1, 90)  0.7558E-06 ( 17,  1, 90)
     1 CALLS TO GCG PACKAGE FOR TRANSPORT TIME STEP 775 IN FLOW TIME STEP   1 STRESS PERIOD   1
     8 TOTAL ITERATIONS
  MAXIMUM CONCENTRATION CHANGES FOR EACH ITERATION:
  MAX. CHANGE LAYER,ROW,COL MAX. CHANGE LAYER,ROW,COL MAX. CHANGE LAYER,ROW,COL MAX. CHANGE LAYER,ROW,COL MAX. CHANGE LAYER,ROW,COL
 ------------------------------------------------------------------------------------------------------------------------------------
   0.5607E-01 ( 20,  1, 87)  0.4458E-02 ( 19,  1, 89)  0.2125E-02 ( 18,  1, 86)  0.4252E-03 ( 20,  1, 89)  0.1022E-03 ( 16,  1, 89)
   0.1520E-04 ( 23,  1, 87)  0.1483E-04 ( 16,  1, 90)  0.8224E-06 ( 17,  1, 90)
 
 SOLVING FOR HEAD 


     2 CALLS TO PCG ROUTINE FOR TIME STEP   1 IN STRESS PERIOD    1
     9 TOTAL ITERATIONS

 MAXIMUM HEAD CHANGE FOR EACH ITERATION (1 INDICATES THE FIRST INNER ITERATION):

    HEAD CHANGE    HEAD CHANGE    HEAD CHANGE    HEAD CHANGE    HEAD CHANGE 
   LAYER,ROW,COL  LAYER,ROW,COL  LAYER,ROW,COL  LAYER,ROW,COL  LAYER,ROW,COL
 ---------------------------------------------------------------------------
  1 -0.1347E-01  0  0.3590E-02  0  0.2335E-02  0  0.1232E-01  0 -0.1281E-01
   ( 15,  1, 86)  ( 17,  1, 89)  (  8,  1, 12)  ( 11,  1, 50)  ( 11,  1, 50)
  0  0.1731E-02  0  0.1111E-02  0  0.6371E-03  1 -0.4590E-03
   ( 11,  1, 52)  ( 11,  1, 69)  ( 11,  1, 57)  ( 11,  1, 70)

 MAXIMUM RESIDUAL FOR EACH ITERATION (1 INDICATES THE FIRST INNER ITERATION):

    RESIDUAL       RESIDUAL       RESIDUAL       RESIDUAL       RESIDUAL    
   LAYER,ROW,COL  LAYER,ROW,COL  LAYER,ROW,COL  LAYER,ROW,COL  LAYER,ROW,COL
 ---------------------------------------------------------------------------
  1 -0.1305E+06  0  0.9145E+05  0  0.8993E+05  0  0.2707E+05  0   5330.    
   ( 21,  1, 89)  ( 19,  1, 89)  ( 19,  1, 89)  ( 19,  1, 89)  ( 17,  1, 87)
  0  -2874.      0  -2362.      0  -861.6      1  -742.5    
   ( 22,  1, 87)  ( 22,  1, 87)  ( 22,  1, 87)  ( 22,  1, 87)


 FLOW MODEL IS TRANSIENT
 FLOW MODEL CONTAINS CONSTANT-HEAD CELLS


 MAXIMUM STEPSIZE DURING WHICH ANY PARTICLE CANNOT MOVE MORE THAN ONE CELL
 =  13.20    (WHEN MIN. R.F.=1)  AT K=  17, I=   1, J=  90

 MAXIMUM STEPSIZE WHICH MEETS STABILITY CRITERION OF THE ADVECTION TERM
 (FOR PURE FINITE-DIFFERENCE OPTION, MIXELM=0) 
 =  8.001    (WHEN MIN. R.F.=1)  AT K=  16, I=   1, J=  90


 TOTAL NUMBER OF POINT SOURCES/SINKS PRESENT IN THE FLOW MODEL =    30

 MAXIMUM STEPSIZE WHICH MEETS STABILITY CRITERION OF THE SINK & SOURCE TERM
 =  12.17    (WHEN MIN. R.F.=1)  AT K=  17, I=   1, J=  91

 MAXIMUM STEPSIZE WHICH MEETS STABILITY CRITERION OF THE DISPERSION TERM
 =  4.348    (WHEN MIN. R.F.=1)  AT K=  17, I=   1, J=  90
     1 CALLS TO GCG PACKAGE FOR TRANSPORT TIME STEP 776 IN FLOW TIME STEP   1 STRESS PERIOD   1
     9 TOTAL ITERATIONS
     1 CALLS TO GCG PACKAGE FOR TRANSPORT TIME STEP 776 IN FLOW TIME STEP   1 STRESS PERIOD   1
     8 TOTAL ITERATIONS
 
 SOLVING FOR HEAD 


     2 CALLS TO PCG ROUTINE FOR TIME STEP   1 IN STRESS PERIOD    1
     9 TOTAL ITERATIONS

 MAXIMUM HEAD CHANGE FOR EACH ITERATION (1 INDICATES THE FIRST INNER ITERATION):

    HEAD CHANGE    HEAD CHANGE    HEAD CHANGE    HEAD CHANGE    HEAD CHANGE 
   LAYER,ROW,COL  LAYER,ROW,COL  LAYER,ROW,COL  LAYER,ROW,COL  LAYER,ROW,COL
 ---------------------------------------------------------------------------
  1  0.1347E-01  0 -0.3597E-02  0 -0.2398E-02  0 -0.8140E-02  0  0.8530E-02
   ( 15,  1, 86)  ( 17,  1, 89)  (  7,  1, 12)  (  8,  1, 49)  (  7,  1, 48)
  0  0.1508E-02  0 -0.1097E-02  0 -0.8271E-03  1  0.5977E-03
   ( 11,  1, 52)  ( 11,  1, 52)  ( 11,  1, 59)  ( 11,  1, 70)

 MAXIMUM RESIDUAL FOR EACH ITERATION (1 INDICATES THE FIRST INNER ITERATION):

    RESIDUAL       RESIDUAL       RESIDUAL       RESIDUAL       RESIDUAL    
   LAYER,ROW,COL  LAYER,ROW,COL  LAYER,ROW,COL  LAYER,ROW,COL  LAYER,ROW,COL
 ---------------------------------------------------------------------------
  1  0.1305E+06  0 -0.9146E+05  0 -0.8885E+05  0 -0.3811E+05  0  -5918.    
   ( 21,  1, 89)  ( 19,  1, 89)  ( 19,  1, 89)  ( 19,  1, 89)  ( 17,  1, 87)
  0   2890.      0   2443.      0   859.5      1   737.0    
   ( 22,  1, 87)  ( 22,  1, 87)  ( 22,  1, 87)  ( 22,  1, 87)


 FLOW MODEL IS TRANSIENT
 FLOW MODEL CONTAINS CONSTANT-HEAD CELLS


 MAXIMUM STEPSIZE DURING WHICH ANY PARTICLE CANNOT MOVE MORE THAN ONE CELL
 =  12.87    (WHEN MIN. R.F.=1)  AT K=  17, I=   1, J=  90

 MAXIMUM STEPSIZE WHICH MEETS STABILITY CRITERION OF THE ADVECTION TERM
 (FOR PURE FINITE-DIFFERENCE OPTION, MIXELM=0) 
 =  8.037    (WHEN MIN. R.F.=1)  AT K=  16, I=   1, J=  90


 TOTAL NUMBER OF POINT SOURCES/SINKS PRESENT IN THE FLOW MODEL =    30

 MAXIMUM STEPSIZE WHICH MEETS STABILITY CRITERION OF THE SINK & SOURCE TERM
 =  12.21    (WHEN MIN. R.F.=1)  AT K=  17, I=   1, J=  91

 MAXIMUM STEPSIZE WHICH MEETS STABILITY CRITERION OF THE DISPERSION TERM
 =  4.035    (WHEN MIN. R.F.=1)  AT K=  17, I=   1, J=  90
     1 CALLS TO GCG PACKAGE FOR TRANSPORT TIME STEP 777 IN FLOW TIME STEP   1 STRESS PERIOD   1
     8 TOTAL ITERATIONS
     1 CALLS TO GCG PACKAGE FOR TRANSPORT TIME STEP 777 IN FLOW TIME STEP   1 STRESS PERIOD   1
     8 TOTAL ITERATIONS
 
 SOLVING FOR HEAD 


     2 CALLS TO PCG ROUTINE FOR TIME STEP   1 IN STRESS PERIOD    1
     9 TOTAL ITERATIONS

 MAXIMUM HEAD CHANGE FOR EACH ITERATION (1 INDICATES THE FIRST INNER ITERATION):

    HEAD CHANGE    HEAD CHANGE    HEAD CHANGE    HEAD CHANGE    HEAD CHANGE 
   LAYER,ROW,COL  LAYER,ROW,COL  LAYER,ROW,COL  LAYER,ROW,COL  LAYER,ROW,COL
 ---------------------------------------------------------------------------
  1 -0.1348E-01  0  0.3597E-02  0  0.2345E-02  0  0.1254E-01  0 -0.1328E-01
   ( 15,  1, 86)  ( 17,  1, 89)  (  8,  1, 12)  ( 11,  1, 49)  ( 11,  1, 49)
  0  0.1969E-02  0  0.1015E-02  0  0.7233E-03  1 -0.4789E-03
   ( 11,  1, 51)  ( 11,  1, 68)  ( 11,  1, 57)  ( 11,  1, 57)

 MAXIMUM RESIDUAL FOR EACH ITERATION (1 INDICATES THE FIRST INNER ITERATION):

    RESIDUAL       RESIDUAL       RESIDUAL       RESIDUAL       RESIDUAL    
   LAYER,ROW,COL  LAYER,ROW,COL  LAYER,ROW,COL  LAYER,ROW,COL  LAYER,ROW,COL
 ---------------------------------------------------------------------------
  1 -0.1305E+06  0  0.9147E+05  0  0.9001E+05  0  0.2410E+05  0   5118.    
   ( 21,  1, 89)  ( 19,  1, 89)  ( 19,  1, 89)  ( 19,  1, 89)  ( 17,  1, 87)
  0  -2868.      0  -2419.      0  -894.2      1  -775.4    
   ( 22,  1, 87)  ( 22,  1, 87)  ( 22,  1, 87)  ( 22,  1, 87)


 FLOW MODEL IS TRANSIENT
 FLOW MODEL CONTAINS CONSTANT-HEAD CELLS


 MAXIMUM STEPSIZE DURING WHICH ANY PARTICLE CANNOT MOVE MORE THAN ONE CELL
 =  13.20    (WHEN MIN. R.F.=1)  AT K=  17, I=   1, J=  90

 MAXIMUM STEPSIZE WHICH MEETS STABILITY CRITERION OF THE ADVECTION TERM
 (FOR PURE FINITE-DIFFERENCE OPTION, MIXELM=0) 
 =  8.001    (WHEN MIN. R.F.=1)  AT K=  16, I=   1, J=  90


 TOTAL NUMBER OF POINT SOURCES/SINKS PRESENT IN THE FLOW MODEL =    30

 MAXIMUM STEPSIZE WHICH MEETS STABILITY CRITERION OF THE SINK & SOURCE TERM
 =  12.17    (WHEN MIN. R.F.=1)  AT K=  17, I=   1, J=  91

 MAXIMUM STEPSIZE WHICH MEETS STABILITY CRITERION OF THE DISPERSION TERM
 =  4.348    (WHEN MIN. R.F.=1)  AT K=  17, I=   1, J=  90
     1 CALLS TO GCG PACKAGE FOR TRANSPORT TIME STEP 778 IN FLOW TIME STEP   1 STRESS PERIOD   1
     9 TOTAL ITERATIONS
     1 CALLS TO GCG PACKAGE FOR TRANSPORT TIME STEP 778 IN FLOW TIME STEP   1 STRESS PERIOD   1
     8 TOTAL ITERATIONS
 
 SOLVING FOR HEAD 


     2 CALLS TO PCG ROUTINE FOR TIME STEP   1 IN STRESS PERIOD    1
     8 TOTAL ITERATIONS

 MAXIMUM HEAD CHANGE FOR EACH ITERATION (1 INDICATES THE FIRST INNER ITERATION):

    HEAD CHANGE    HEAD CHANGE    HEAD CHANGE    HEAD CHANGE    HEAD CHANGE 
   LAYER,ROW,COL  LAYER,ROW,COL  LAYER,ROW,COL  LAYER,ROW,COL  LAYER,ROW,COL
 ---------------------------------------------------------------------------
  1  0.1348E-01  0 -0.3609E-02  0 -0.2356E-02  0 -0.7713E-02  0  0.8147E-02
   ( 15,  1, 86)  ( 17,  1, 89)  (  7,  1, 12)  ( 10,  1, 50)  ( 10,  1, 50)
  0  0.1446E-02  0  0.9094E-03  1 -0.9080E-03
   ( 11,  1, 41)  ( 11,  1, 58)  ( 11,  1, 58)

 MAXIMUM RESIDUAL FOR EACH ITERATION (1 INDICATES THE FIRST INNER ITERATION):

    RESIDUAL       RESIDUAL       RESIDUAL       RESIDUAL       RESIDUAL    
   LAYER,ROW,COL  LAYER,ROW,COL  LAYER,ROW,COL  LAYER,ROW,COL  LAYER,ROW,COL
 ---------------------------------------------------------------------------
  1  0.1306E+06  0 -0.9156E+05  0 -0.8919E+05  0 -0.3585E+05  0  -5884.    
   ( 21,  1, 89)  ( 19,  1, 89)  ( 19,  1, 89)  ( 19,  1, 89)  ( 17,  1, 87)
  0   2885.      0   2489.      1   2067.    
   ( 22,  1, 87)  ( 22,  1, 87)  ( 22,  1, 87)


 FLOW MODEL IS TRANSIENT
 FLOW MODEL CONTAINS CONSTANT-HEAD CELLS


 MAXIMUM STEPSIZE DURING WHICH ANY PARTICLE CANNOT MOVE MORE THAN ONE CELL
 =  12.86    (WHEN MIN. R.F.=1)  AT K=  17, I=   1, J=  90

 MAXIMUM STEPSIZE WHICH MEETS STABILITY CRITERION OF THE ADVECTION TERM
 (FOR PURE FINITE-DIFFERENCE OPTION, MIXELM=0) 
 =  8.032    (WHEN MIN. R.F.=1)  AT K=  16, I=   1, J=  90


 TOTAL NUMBER OF POINT SOURCES/SINKS PRESENT IN THE FLOW MODEL =    30

 MAXIMUM STEPSIZE WHICH MEETS STABILITY CRITERION OF THE SINK & SOURCE TERM
 =  12.20    (WHEN MIN. R.F.=1)  AT K=  17, I=   1, J=  91

 MAXIMUM STEPSIZE WHICH MEETS STABILITY CRITERION OF THE DISPERSION TERM
 =  4.032    (WHEN MIN. R.F.=1)  AT K=  17, I=   1, J=  90
     1 CALLS TO GCG PACKAGE FOR TRANSPORT TIME STEP 779 IN FLOW TIME STEP   1 STRESS PERIOD   1
     8 TOTAL ITERATIONS
     1 CALLS TO GCG PACKAGE FOR TRANSPORT TIME STEP 779 IN FLOW TIME STEP   1 STRESS PERIOD   1
     8 TOTAL ITERATIONS
 
 SOLVING FOR HEAD 


     2 CALLS TO PCG ROUTINE FOR TIME STEP   1 IN STRESS PERIOD    1
     8 TOTAL ITERATIONS

 MAXIMUM HEAD CHANGE FOR EACH ITERATION (1 INDICATES THE FIRST INNER ITERATION):

    HEAD CHANGE    HEAD CHANGE    HEAD CHANGE    HEAD CHANGE    HEAD CHANGE 
   LAYER,ROW,COL  LAYER,ROW,COL  LAYER,ROW,COL  LAYER,ROW,COL  LAYER,ROW,COL
 ---------------------------------------------------------------------------
  1 -0.1376E-01  0 -0.7749E-02  0  0.4162E-02  0  0.1735E-01  0 -0.1438E-01
   ( 15,  1, 86)  ( 11,  1, 58)  (  8,  1, 12)  ( 11,  1, 58)  ( 11,  1, 59)
  0 -0.2652E-02  0  0.9750E-03  1  0.5205E-03
   ( 11,  1, 35)  ( 11,  1, 35)  ( 11,  1, 70)

 MAXIMUM RESIDUAL FOR EACH ITERATION (1 INDICATES THE FIRST INNER ITERATION):

    RESIDUAL       RESIDUAL       RESIDUAL       RESIDUAL       RESIDUAL    
   LAYER,ROW,COL  LAYER,ROW,COL  LAYER,ROW,COL  LAYER,ROW,COL  LAYER,ROW,COL
 ---------------------------------------------------------------------------
  1 -0.1329E+06  0  0.9371E+05  0  0.9299E+05  0  0.5847E+05  0   5429.    
   ( 21,  1, 89)  ( 19,  1, 89)  ( 19,  1, 89)  ( 19,  1, 89)  ( 17,  1, 87)
  0  -2769.      0  -2627.      1  -1945.    
   ( 22,  1, 87)  ( 22,  1, 87)  ( 22,  1, 87)


 FLOW MODEL IS TRANSIENT
 FLOW MODEL CONTAINS CONSTANT-HEAD CELLS


 MAXIMUM STEPSIZE DURING WHICH ANY PARTICLE CANNOT MOVE MORE THAN ONE CELL
 =  13.16    (WHEN MIN. R.F.=1)  AT K=  17, I=   1, J=  90

 MAXIMUM STEPSIZE WHICH MEETS STABILITY CRITERION OF THE ADVECTION TERM
 (FOR PURE FINITE-DIFFERENCE OPTION, MIXELM=0) 
 =  7.982    (WHEN MIN. R.F.=1)  AT K=  16, I=   1, J=  90


 TOTAL NUMBER OF POINT SOURCES/SINKS PRESENT IN THE FLOW MODEL =    30

 MAXIMUM STEPSIZE WHICH MEETS STABILITY CRITERION OF THE SINK & SOURCE TERM
 =  12.10    (WHEN MIN. R.F.=1)  AT K=  17, I=   1, J=  91

 MAXIMUM STEPSIZE WHICH MEETS STABILITY CRITERION OF THE DISPERSION TERM
 =  4.333    (WHEN MIN. R.F.=1)  AT K=  17, I=   1, J=  90
     1 CALLS TO GCG PACKAGE FOR TRANSPORT TIME STEP 780 IN FLOW TIME STEP   1 STRESS PERIOD   1
     8 TOTAL ITERATIONS
  MAXIMUM CONCENTRATION CHANGES FOR EACH ITERATION:
  MAX. CHANGE LAYER,ROW,COL MAX. CHANGE LAYER,ROW,COL MAX. CHANGE LAYER,ROW,COL MAX. CHANGE LAYER,ROW,COL MAX. CHANGE LAYER,ROW,COL
 ------------------------------------------------------------------------------------------------------------------------------------
   0.4854E-01 ( 20,  1, 87)  0.3254E-02 ( 19,  1, 87)  0.2098E-02 ( 18,  1, 87)  0.2102E-03 ( 16,  1, 88)  0.1443E-03 ( 16,  1, 89)
   0.2602E-04 ( 16,  1, 90)  0.3560E-05 ( 21,  1, 78)  0.3439E-06 ( 16,  1, 89)
     1 CALLS TO GCG PACKAGE FOR TRANSPORT TIME STEP 780 IN FLOW TIME STEP   1 STRESS PERIOD   1
     8 TOTAL ITERATIONS
  MAXIMUM CONCENTRATION CHANGES FOR EACH ITERATION:
  MAX. CHANGE LAYER,ROW,COL MAX. CHANGE LAYER,ROW,COL MAX. CHANGE LAYER,ROW,COL MAX. CHANGE LAYER,ROW,COL MAX. CHANGE LAYER,ROW,COL
 ------------------------------------------------------------------------------------------------------------------------------------
   0.5259E-01 ( 20,  1, 87)  0.3414E-02 ( 19,  1, 87)  0.2228E-02 ( 18,  1, 87)  0.2136E-03 ( 16,  1, 88)  0.1314E-03 ( 17,  1, 89)
   0.3138E-04 ( 16,  1, 90)  0.4643E-05 ( 17,  1, 90)  0.5529E-06 ( 16,  1, 89)



 >>>>>>>>>>>>>>>>>>>>>>>>>>>>>>>>>>>>>>>>>>>>>>>>>>>>>>>FOR COMPONENT NO. 01<<<<<<<<<<<<<<<<<<<<<<<<<<<<<<<<<<<<<<<<<<<<<<<<<<<<<<<


                                            -------------------------------------------
                                                      TRANSPORT STEP NO.  780
                                            -------------------------------------------

 TOTAL ELAPSED TIME SINCE BEGINNING OF SIMULATION =   39000.00    D   
 .....................................................................

                     CUMMULATIVE MASS BUDGETS AT END OF TRANSPORT STEP  780, TIME STEP    1, STRESS PERIOD    1
                     ------------------------------------------------------------------------------------------

                                                             IN                           OUT
                                                      ----------------             ----------------
                               CONSTANT CONCENTRATION:    0.000000                    0.000000    
                                        CONSTANT HEAD:   0.1543205E+10              -0.1542988E+10
                                                WELLS:    0.000000                    0.000000    
                                             RECHARGE:    0.000000                    0.000000    
                               1ST/0TH ORDER REACTION:    0.000000                    0.000000    
                                MASS STORAGE (SOLUTE):   0.2156910E+09              -0.2159086E+09
                            ---------------------------------------------------------------------------
                                              [TOTAL]:   0.1758898E+10 KG           -0.1758898E+10 KG  

                                                          NET (IN - OUT):   -274.9014    
                                                   DISCREPANCY (PERCENT):  -0.1562918E-04



 >>>>>>>>>>>>>>>>>>>>>>>>>>>>>>>>>>>>>>>>>>>>>>>>>>>>>>>FOR COMPONENT NO. 02<<<<<<<<<<<<<<<<<<<<<<<<<<<<<<<<<<<<<<<<<<<<<<<<<<<<<<<


                                            -------------------------------------------
                                                      TRANSPORT STEP NO.  780
                                            -------------------------------------------

 TOTAL ELAPSED TIME SINCE BEGINNING OF SIMULATION =   39000.00    D   
 .....................................................................

                     CUMMULATIVE MASS BUDGETS AT END OF TRANSPORT STEP  780, TIME STEP    1, STRESS PERIOD    1
                     ------------------------------------------------------------------------------------------

                                                             IN                           OUT
                                                      ----------------             ----------------
                               CONSTANT CONCENTRATION:    0.000000                    0.000000    
                                        CONSTANT HEAD:    0.000000                  -0.3140071E+12
                                                WELLS:    0.000000                    0.000000    
                                             RECHARGE:    0.000000                    0.000000    
                               1ST/0TH ORDER REACTION:   0.6454500E+12                0.000000    
                                MASS STORAGE (SOLUTE):   0.1174197E+12              -0.4488627E+12
                            ---------------------------------------------------------------------------
                                              [TOTAL]:   0.7628713E+12 KG           -0.7628714E+12 KG  

                                                          NET (IN - OUT):   -102797.4    
                                                   DISCREPANCY (PERCENT):  -0.1347507E-04
 
 SOLVING FOR HEAD 


     2 CALLS TO PCG ROUTINE FOR TIME STEP   1 IN STRESS PERIOD    1
     9 TOTAL ITERATIONS

 MAXIMUM HEAD CHANGE FOR EACH ITERATION (1 INDICATES THE FIRST INNER ITERATION):

    HEAD CHANGE    HEAD CHANGE    HEAD CHANGE    HEAD CHANGE    HEAD CHANGE 
   LAYER,ROW,COL  LAYER,ROW,COL  LAYER,ROW,COL  LAYER,ROW,COL  LAYER,ROW,COL
 ---------------------------------------------------------------------------
  1  0.1381E-01  0  0.7518E-02  0 -0.3759E-02  0 -0.8563E-02  0  0.6235E-02
   ( 15,  1, 86)  (  6,  1, 43)  (  7,  1, 12)  ( 11,  1, 68)  (  7,  1, 50)
  0  0.5500E-02  0 -0.1488E-02  0 -0.9960E-03  1  0.7738E-03
   ( 11,  1, 49)  ( 11,  1, 49)  ( 11,  1, 58)  ( 11,  1, 58)

 MAXIMUM RESIDUAL FOR EACH ITERATION (1 INDICATES THE FIRST INNER ITERATION):

    RESIDUAL       RESIDUAL       RESIDUAL       RESIDUAL       RESIDUAL    
   LAYER,ROW,COL  LAYER,ROW,COL  LAYER,ROW,COL  LAYER,ROW,COL  LAYER,ROW,COL
 ---------------------------------------------------------------------------
  1  0.1342E+06  0 -0.9607E+05  0 -0.9520E+05  0 -0.7830E+05  0   6833.    
   ( 21,  1, 89)  ( 19,  1, 89)  ( 19,  1, 89)  ( 19,  1, 89)  ( 17,  1, 88)
  0   3159.      0   2526.      0   1878.      1   1616.    
   ( 17,  1, 88)  ( 22,  1, 87)  ( 22,  1, 87)  ( 22,  1, 87)


 FLOW MODEL IS TRANSIENT
 FLOW MODEL CONTAINS CONSTANT-HEAD CELLS


 MAXIMUM STEPSIZE DURING WHICH ANY PARTICLE CANNOT MOVE MORE THAN ONE CELL
 =  12.87    (WHEN MIN. R.F.=1)  AT K=  17, I=   1, J=  90

 MAXIMUM STEPSIZE WHICH MEETS STABILITY CRITERION OF THE ADVECTION TERM
 (FOR PURE FINITE-DIFFERENCE OPTION, MIXELM=0) 
 =  8.043    (WHEN MIN. R.F.=1)  AT K=  16, I=   1, J=  90


 TOTAL NUMBER OF POINT SOURCES/SINKS PRESENT IN THE FLOW MODEL =    30

 MAXIMUM STEPSIZE WHICH MEETS STABILITY CRITERION OF THE SINK & SOURCE TERM
 =  12.21    (WHEN MIN. R.F.=1)  AT K=  17, I=   1, J=  91

 MAXIMUM STEPSIZE WHICH MEETS STABILITY CRITERION OF THE DISPERSION TERM
 =  4.029    (WHEN MIN. R.F.=1)  AT K=  17, I=   1, J=  90
     1 CALLS TO GCG PACKAGE FOR TRANSPORT TIME STEP 781 IN FLOW TIME STEP   1 STRESS PERIOD   1
     8 TOTAL ITERATIONS
     1 CALLS TO GCG PACKAGE FOR TRANSPORT TIME STEP 781 IN FLOW TIME STEP   1 STRESS PERIOD   1
     8 TOTAL ITERATIONS
 
 SOLVING FOR HEAD 


     2 CALLS TO PCG ROUTINE FOR TIME STEP   1 IN STRESS PERIOD    1
     9 TOTAL ITERATIONS

 MAXIMUM HEAD CHANGE FOR EACH ITERATION (1 INDICATES THE FIRST INNER ITERATION):

    HEAD CHANGE    HEAD CHANGE    HEAD CHANGE    HEAD CHANGE    HEAD CHANGE 
   LAYER,ROW,COL  LAYER,ROW,COL  LAYER,ROW,COL  LAYER,ROW,COL  LAYER,ROW,COL
 ---------------------------------------------------------------------------
  1 -0.1371E-01  0  0.4161E-02  0  0.4542E-02  0 -0.1661E-01  0  0.1558E-01
   ( 15,  1, 86)  ( 11,  1, 58)  (  8,  1, 12)  ( 11,  1, 58)  ( 11,  1, 58)
  0  0.2233E-02  0  0.1088E-02  0  0.4748E-03  1  0.3441E-03
   ( 11,  1, 69)  ( 11,  1, 53)  ( 11,  1, 36)  (  7,  1, 43)

 MAXIMUM RESIDUAL FOR EACH ITERATION (1 INDICATES THE FIRST INNER ITERATION):

    RESIDUAL       RESIDUAL       RESIDUAL       RESIDUAL       RESIDUAL    
   LAYER,ROW,COL  LAYER,ROW,COL  LAYER,ROW,COL  LAYER,ROW,COL  LAYER,ROW,COL
 ---------------------------------------------------------------------------
  1 -0.1314E+06  0  0.9249E+05  0  0.9188E+05  0  0.2986E+05  0  -5048.    
   ( 21,  1, 89)  ( 19,  1, 89)  ( 19,  1, 89)  ( 19,  1, 89)  ( 17,  1, 88)
  0  -2819.      0  -2486.      0  -889.4      1  -803.4    
   ( 22,  1, 87)  ( 22,  1, 87)  ( 22,  1, 87)  ( 22,  1, 87)


 FLOW MODEL IS TRANSIENT
 FLOW MODEL CONTAINS CONSTANT-HEAD CELLS


 MAXIMUM STEPSIZE DURING WHICH ANY PARTICLE CANNOT MOVE MORE THAN ONE CELL
 =  13.22    (WHEN MIN. R.F.=1)  AT K=  17, I=   1, J=  90

 MAXIMUM STEPSIZE WHICH MEETS STABILITY CRITERION OF THE ADVECTION TERM
 (FOR PURE FINITE-DIFFERENCE OPTION, MIXELM=0) 
 =  8.002    (WHEN MIN. R.F.=1)  AT K=  16, I=   1, J=  90


 TOTAL NUMBER OF POINT SOURCES/SINKS PRESENT IN THE FLOW MODEL =    30

 MAXIMUM STEPSIZE WHICH MEETS STABILITY CRITERION OF THE SINK & SOURCE TERM
 =  12.17    (WHEN MIN. R.F.=1)  AT K=  17, I=   1, J=  91

 MAXIMUM STEPSIZE WHICH MEETS STABILITY CRITERION OF THE DISPERSION TERM
 =  4.375    (WHEN MIN. R.F.=1)  AT K=  17, I=   1, J=  90
     1 CALLS TO GCG PACKAGE FOR TRANSPORT TIME STEP 782 IN FLOW TIME STEP   1 STRESS PERIOD   1
     9 TOTAL ITERATIONS
     1 CALLS TO GCG PACKAGE FOR TRANSPORT TIME STEP 782 IN FLOW TIME STEP   1 STRESS PERIOD   1
     8 TOTAL ITERATIONS
 
 SOLVING FOR HEAD 


     3 CALLS TO PCG ROUTINE FOR TIME STEP   1 IN STRESS PERIOD    1
    11 TOTAL ITERATIONS

 MAXIMUM HEAD CHANGE FOR EACH ITERATION (1 INDICATES THE FIRST INNER ITERATION):

    HEAD CHANGE    HEAD CHANGE    HEAD CHANGE    HEAD CHANGE    HEAD CHANGE 
   LAYER,ROW,COL  LAYER,ROW,COL  LAYER,ROW,COL  LAYER,ROW,COL  LAYER,ROW,COL
 ---------------------------------------------------------------------------
  1  0.1332E-01  0 -0.3953E-02  0 -0.2334E-02  0 -0.7513E-02  0  0.8318E-02
   ( 15,  1, 86)  ( 17,  1, 89)  (  7,  1, 12)  (  8,  1, 45)  (  8,  1, 45)
  0  0.1130E-02  0 -0.1191E-02  0 -0.6960E-03  1  0.1017E-02  0  0.2212E-03
   ( 11,  1, 41)  ( 11,  1, 51)  ( 11,  1, 70)  ( 11,  1, 70)  ( 11,  1, 55)
  1 -0.7298E-04
   ( 11,  1, 52)

 MAXIMUM RESIDUAL FOR EACH ITERATION (1 INDICATES THE FIRST INNER ITERATION):

    RESIDUAL       RESIDUAL       RESIDUAL       RESIDUAL       RESIDUAL    
   LAYER,ROW,COL  LAYER,ROW,COL  LAYER,ROW,COL  LAYER,ROW,COL  LAYER,ROW,COL
 ---------------------------------------------------------------------------
  1  0.1344E+06  0 -0.9533E+05  0 -0.9336E+05  0 -0.2776E+05  0  -5846.    
   ( 21,  1, 89)  ( 19,  1, 89)  ( 19,  1, 89)  ( 19,  1, 89)  ( 17,  1, 87)
  0   2797.      0   2315.      0   840.1      1   687.3      0   569.4    
   ( 22,  1, 87)  ( 22,  1, 87)  ( 22,  1, 87)  ( 22,  1, 87)  ( 22,  1, 87)
  1   529.5    
   ( 22,  1, 87)


 FLOW MODEL IS TRANSIENT
 FLOW MODEL CONTAINS CONSTANT-HEAD CELLS


 MAXIMUM STEPSIZE DURING WHICH ANY PARTICLE CANNOT MOVE MORE THAN ONE CELL
 =  12.85    (WHEN MIN. R.F.=1)  AT K=  17, I=   1, J=  90

 MAXIMUM STEPSIZE WHICH MEETS STABILITY CRITERION OF THE ADVECTION TERM
 (FOR PURE FINITE-DIFFERENCE OPTION, MIXELM=0) 
 =  8.036    (WHEN MIN. R.F.=1)  AT K=  16, I=   1, J=  90


 TOTAL NUMBER OF POINT SOURCES/SINKS PRESENT IN THE FLOW MODEL =    30

 MAXIMUM STEPSIZE WHICH MEETS STABILITY CRITERION OF THE SINK & SOURCE TERM
 =  12.20    (WHEN MIN. R.F.=1)  AT K=  17, I=   1, J=  91

 MAXIMUM STEPSIZE WHICH MEETS STABILITY CRITERION OF THE DISPERSION TERM
 =  4.026    (WHEN MIN. R.F.=1)  AT K=  17, I=   1, J=  90
     1 CALLS TO GCG PACKAGE FOR TRANSPORT TIME STEP 783 IN FLOW TIME STEP   1 STRESS PERIOD   1
     8 TOTAL ITERATIONS
     1 CALLS TO GCG PACKAGE FOR TRANSPORT TIME STEP 783 IN FLOW TIME STEP   1 STRESS PERIOD   1
     8 TOTAL ITERATIONS
 
 SOLVING FOR HEAD 


     2 CALLS TO PCG ROUTINE FOR TIME STEP   1 IN STRESS PERIOD    1
     7 TOTAL ITERATIONS

 MAXIMUM HEAD CHANGE FOR EACH ITERATION (1 INDICATES THE FIRST INNER ITERATION):

    HEAD CHANGE    HEAD CHANGE    HEAD CHANGE    HEAD CHANGE    HEAD CHANGE 
   LAYER,ROW,COL  LAYER,ROW,COL  LAYER,ROW,COL  LAYER,ROW,COL  LAYER,ROW,COL
 ---------------------------------------------------------------------------
  1 -0.1346E-01  0 -0.2009E-01  0  0.1778E-01  0  0.2263E-02  0 -0.1408E-02
   ( 15,  1, 86)  (  8,  1, 12)  (  8,  1, 12)  ( 15,  1, 87)  (  9,  1, 41)
  0  0.8100E-03  1 -0.5423E-03
   (  7,  1, 42)  (  8,  1, 43)

 MAXIMUM RESIDUAL FOR EACH ITERATION (1 INDICATES THE FIRST INNER ITERATION):

    RESIDUAL       RESIDUAL       RESIDUAL       RESIDUAL       RESIDUAL    
   LAYER,ROW,COL  LAYER,ROW,COL  LAYER,ROW,COL  LAYER,ROW,COL  LAYER,ROW,COL
 ---------------------------------------------------------------------------
  1 -0.1321E+06  0 -0.1004E+06  0  0.9173E+05  0  0.1221E+05  0  -3068.    
   ( 21,  1, 89)  ( 21,  1, 89)  ( 19,  1, 89)  ( 17,  1, 87)  ( 22,  1, 87)
  0  -2753.      1  -2255.    
   ( 22,  1, 87)  ( 22,  1, 87)


 FLOW MODEL IS TRANSIENT
 FLOW MODEL CONTAINS CONSTANT-HEAD CELLS


 MAXIMUM STEPSIZE DURING WHICH ANY PARTICLE CANNOT MOVE MORE THAN ONE CELL
 =  13.24    (WHEN MIN. R.F.=1)  AT K=  17, I=   1, J=  90

 MAXIMUM STEPSIZE WHICH MEETS STABILITY CRITERION OF THE ADVECTION TERM
 (FOR PURE FINITE-DIFFERENCE OPTION, MIXELM=0) 
 =  8.014    (WHEN MIN. R.F.=1)  AT K=  16, I=   1, J=  90


 TOTAL NUMBER OF POINT SOURCES/SINKS PRESENT IN THE FLOW MODEL =    30

 MAXIMUM STEPSIZE WHICH MEETS STABILITY CRITERION OF THE SINK & SOURCE TERM
 =  12.18    (WHEN MIN. R.F.=1)  AT K=  17, I=   1, J=  91

 MAXIMUM STEPSIZE WHICH MEETS STABILITY CRITERION OF THE DISPERSION TERM
 =  4.374    (WHEN MIN. R.F.=1)  AT K=  17, I=   1, J=  90
     1 CALLS TO GCG PACKAGE FOR TRANSPORT TIME STEP 784 IN FLOW TIME STEP   1 STRESS PERIOD   1
    10 TOTAL ITERATIONS
     1 CALLS TO GCG PACKAGE FOR TRANSPORT TIME STEP 784 IN FLOW TIME STEP   1 STRESS PERIOD   1
     8 TOTAL ITERATIONS
 
 SOLVING FOR HEAD 


     2 CALLS TO PCG ROUTINE FOR TIME STEP   1 IN STRESS PERIOD    1
     9 TOTAL ITERATIONS

 MAXIMUM HEAD CHANGE FOR EACH ITERATION (1 INDICATES THE FIRST INNER ITERATION):

    HEAD CHANGE    HEAD CHANGE    HEAD CHANGE    HEAD CHANGE    HEAD CHANGE 
   LAYER,ROW,COL  LAYER,ROW,COL  LAYER,ROW,COL  LAYER,ROW,COL  LAYER,ROW,COL
 ---------------------------------------------------------------------------
  1  0.1373E-01  0 -0.6781E-02  0 -0.4098E-02  0  0.9874E-02  0 -0.6225E-02
   ( 15,  1, 86)  (  9,  1, 45)  (  8,  1, 12)  (  8,  1, 44)  (  8,  1, 46)
  0 -0.3731E-02  0  0.1419E-02  0 -0.6985E-03  1  0.5977E-03
   ( 11,  1, 51)  ( 11,  1, 51)  ( 11,  1, 62)  ( 11,  1, 62)

 MAXIMUM RESIDUAL FOR EACH ITERATION (1 INDICATES THE FIRST INNER ITERATION):

    RESIDUAL       RESIDUAL       RESIDUAL       RESIDUAL       RESIDUAL    
   LAYER,ROW,COL  LAYER,ROW,COL  LAYER,ROW,COL  LAYER,ROW,COL  LAYER,ROW,COL
 ---------------------------------------------------------------------------
  1  0.1346E+06  0 -0.9490E+05  0 -0.9409E+05  0 -0.7858E+05  0  -6082.    
   ( 21,  1, 89)  ( 19,  1, 89)  ( 19,  1, 89)  ( 19,  1, 89)  ( 17,  1, 87)
  0   2989.      0   2633.      0   875.4      1   771.4    
   ( 17,  1, 88)  ( 22,  1, 87)  ( 22,  1, 87)  ( 22,  1, 87)


 FLOW MODEL IS TRANSIENT
 FLOW MODEL CONTAINS CONSTANT-HEAD CELLS


 MAXIMUM STEPSIZE DURING WHICH ANY PARTICLE CANNOT MOVE MORE THAN ONE CELL
 =  12.94    (WHEN MIN. R.F.=1)  AT K=  17, I=   1, J=  90

 MAXIMUM STEPSIZE WHICH MEETS STABILITY CRITERION OF THE ADVECTION TERM
 (FOR PURE FINITE-DIFFERENCE OPTION, MIXELM=0) 
 =  8.070    (WHEN MIN. R.F.=1)  AT K=  16, I=   1, J=  90


 TOTAL NUMBER OF POINT SOURCES/SINKS PRESENT IN THE FLOW MODEL =    30

 MAXIMUM STEPSIZE WHICH MEETS STABILITY CRITERION OF THE SINK & SOURCE TERM
 =  12.31    (WHEN MIN. R.F.=1)  AT K=  17, I=   1, J=  91

 MAXIMUM STEPSIZE WHICH MEETS STABILITY CRITERION OF THE DISPERSION TERM
 =  4.061    (WHEN MIN. R.F.=1)  AT K=  17, I=   1, J=  90
     1 CALLS TO GCG PACKAGE FOR TRANSPORT TIME STEP 785 IN FLOW TIME STEP   1 STRESS PERIOD   1
     8 TOTAL ITERATIONS
  MAXIMUM CONCENTRATION CHANGES FOR EACH ITERATION:
  MAX. CHANGE LAYER,ROW,COL MAX. CHANGE LAYER,ROW,COL MAX. CHANGE LAYER,ROW,COL MAX. CHANGE LAYER,ROW,COL MAX. CHANGE LAYER,ROW,COL
 ------------------------------------------------------------------------------------------------------------------------------------
   0.5203E-01 ( 20,  1, 87)  0.4241E-02 ( 19,  1, 89)  0.2082E-02 ( 17,  1, 86)  0.5079E-03 ( 20,  1, 89)  0.9617E-04 ( 16,  1, 89)
   0.1982E-04 ( 20,  1, 89)  0.2051E-04 ( 16,  1, 90)  0.6965E-06 ( 17,  1, 90)
     1 CALLS TO GCG PACKAGE FOR TRANSPORT TIME STEP 785 IN FLOW TIME STEP   1 STRESS PERIOD   1
     8 TOTAL ITERATIONS
  MAXIMUM CONCENTRATION CHANGES FOR EACH ITERATION:
  MAX. CHANGE LAYER,ROW,COL MAX. CHANGE LAYER,ROW,COL MAX. CHANGE LAYER,ROW,COL MAX. CHANGE LAYER,ROW,COL MAX. CHANGE LAYER,ROW,COL
 ------------------------------------------------------------------------------------------------------------------------------------
   0.5551E-01 ( 20,  1, 87)  0.4646E-02 ( 19,  1, 89)  0.2035E-02 ( 18,  1, 86)  0.4625E-03 ( 20,  1, 89)  0.1013E-03 ( 16,  1, 89)
   0.1639E-04 ( 23,  1, 87)  0.1772E-04 ( 16,  1, 90)  0.8121E-06 ( 17,  1, 90)
 
 SOLVING FOR HEAD 


     2 CALLS TO PCG ROUTINE FOR TIME STEP   1 IN STRESS PERIOD    1
     8 TOTAL ITERATIONS

 MAXIMUM HEAD CHANGE FOR EACH ITERATION (1 INDICATES THE FIRST INNER ITERATION):

    HEAD CHANGE    HEAD CHANGE    HEAD CHANGE    HEAD CHANGE    HEAD CHANGE 
   LAYER,ROW,COL  LAYER,ROW,COL  LAYER,ROW,COL  LAYER,ROW,COL  LAYER,ROW,COL
 ---------------------------------------------------------------------------
  1 -0.1364E-01  0  0.4017E-02  0  0.4178E-02  0 -0.9945E-02  0 -0.1006E-01
   ( 15,  1, 86)  ( 17,  1, 89)  (  8,  1, 12)  ( 11,  1, 60)  ( 11,  1, 69)
  0  0.2152E-02  0 -0.6883E-03  1  0.5989E-03
   ( 11,  1, 68)  ( 11,  1, 63)  ( 11,  1, 62)

 MAXIMUM RESIDUAL FOR EACH ITERATION (1 INDICATES THE FIRST INNER ITERATION):

    RESIDUAL       RESIDUAL       RESIDUAL       RESIDUAL       RESIDUAL    
   LAYER,ROW,COL  LAYER,ROW,COL  LAYER,ROW,COL  LAYER,ROW,COL  LAYER,ROW,COL
 ---------------------------------------------------------------------------
  1 -0.1371E+06  0  0.9790E+05  0  0.9713E+05  0  0.2492E+05  0   5048.    
   ( 21,  1, 89)  ( 19,  1, 89)  ( 19,  1, 89)  ( 19,  1, 89)  ( 17,  1, 87)
  0  -2804.      0  -2516.      1  -2047.    
   ( 22,  1, 87)  ( 22,  1, 87)  ( 22,  1, 87)


 FLOW MODEL IS TRANSIENT
 FLOW MODEL CONTAINS CONSTANT-HEAD CELLS


 MAXIMUM STEPSIZE DURING WHICH ANY PARTICLE CANNOT MOVE MORE THAN ONE CELL
 =  13.26    (WHEN MIN. R.F.=1)  AT K=  17, I=   1, J=  90

 MAXIMUM STEPSIZE WHICH MEETS STABILITY CRITERION OF THE ADVECTION TERM
 (FOR PURE FINITE-DIFFERENCE OPTION, MIXELM=0) 
 =  8.019    (WHEN MIN. R.F.=1)  AT K=  16, I=   1, J=  90


 TOTAL NUMBER OF POINT SOURCES/SINKS PRESENT IN THE FLOW MODEL =    30

 MAXIMUM STEPSIZE WHICH MEETS STABILITY CRITERION OF THE SINK & SOURCE TERM
 =  12.22    (WHEN MIN. R.F.=1)  AT K=  17, I=   1, J=  91

 MAXIMUM STEPSIZE WHICH MEETS STABILITY CRITERION OF THE DISPERSION TERM
 =  4.384    (WHEN MIN. R.F.=1)  AT K=  17, I=   1, J=  90
     1 CALLS TO GCG PACKAGE FOR TRANSPORT TIME STEP 786 IN FLOW TIME STEP   1 STRESS PERIOD   1
    10 TOTAL ITERATIONS
     1 CALLS TO GCG PACKAGE FOR TRANSPORT TIME STEP 786 IN FLOW TIME STEP   1 STRESS PERIOD   1
     8 TOTAL ITERATIONS
 
 SOLVING FOR HEAD 


     2 CALLS TO PCG ROUTINE FOR TIME STEP   1 IN STRESS PERIOD    1
     9 TOTAL ITERATIONS

 MAXIMUM HEAD CHANGE FOR EACH ITERATION (1 INDICATES THE FIRST INNER ITERATION):

    HEAD CHANGE    HEAD CHANGE    HEAD CHANGE    HEAD CHANGE    HEAD CHANGE 
   LAYER,ROW,COL  LAYER,ROW,COL  LAYER,ROW,COL  LAYER,ROW,COL  LAYER,ROW,COL
 ---------------------------------------------------------------------------
  1  0.1363E-01  0  0.6767E-02  0 -0.2971E-02  0 -0.8797E-02  0  0.6399E-02
   ( 15,  1, 86)  (  7,  1, 52)  (  7,  1, 12)  (  9,  1, 53)  (  9,  1, 52)
  0 -0.3016E-02  0 -0.1387E-02  0 -0.8224E-03  1  0.6941E-03
   ( 11,  1, 69)  ( 11,  1, 61)  ( 11,  1, 50)  ( 11,  1, 50)

 MAXIMUM RESIDUAL FOR EACH ITERATION (1 INDICATES THE FIRST INNER ITERATION):

    RESIDUAL       RESIDUAL       RESIDUAL       RESIDUAL       RESIDUAL    
   LAYER,ROW,COL  LAYER,ROW,COL  LAYER,ROW,COL  LAYER,ROW,COL  LAYER,ROW,COL
 ---------------------------------------------------------------------------
  1  0.1374E+06  0 -0.9779E+05  0 -0.9658E+05  0 -0.7834E+05  0  -6171.    
   ( 21,  1, 89)  ( 19,  1, 89)  ( 19,  1, 89)  ( 19,  1, 89)  ( 17,  1, 87)
  0   2909.      0   2599.      0   1014.      1   898.9    
   ( 17,  1, 88)  ( 22,  1, 87)  ( 22,  1, 87)  ( 22,  1, 87)


 FLOW MODEL IS TRANSIENT
 FLOW MODEL CONTAINS CONSTANT-HEAD CELLS


 MAXIMUM STEPSIZE DURING WHICH ANY PARTICLE CANNOT MOVE MORE THAN ONE CELL
 =  12.90    (WHEN MIN. R.F.=1)  AT K=  17, I=   1, J=  90

 MAXIMUM STEPSIZE WHICH MEETS STABILITY CRITERION OF THE ADVECTION TERM
 (FOR PURE FINITE-DIFFERENCE OPTION, MIXELM=0) 
 =  8.059    (WHEN MIN. R.F.=1)  AT K=  16, I=   1, J=  90


 TOTAL NUMBER OF POINT SOURCES/SINKS PRESENT IN THE FLOW MODEL =    30

 MAXIMUM STEPSIZE WHICH MEETS STABILITY CRITERION OF THE SINK & SOURCE TERM
 =  12.27    (WHEN MIN. R.F.=1)  AT K=  17, I=   1, J=  91

 MAXIMUM STEPSIZE WHICH MEETS STABILITY CRITERION OF THE DISPERSION TERM
 =  4.042    (WHEN MIN. R.F.=1)  AT K=  17, I=   1, J=  90
     1 CALLS TO GCG PACKAGE FOR TRANSPORT TIME STEP 787 IN FLOW TIME STEP   1 STRESS PERIOD   1
     8 TOTAL ITERATIONS
     1 CALLS TO GCG PACKAGE FOR TRANSPORT TIME STEP 787 IN FLOW TIME STEP   1 STRESS PERIOD   1
     8 TOTAL ITERATIONS
 
 SOLVING FOR HEAD 


     2 CALLS TO PCG ROUTINE FOR TIME STEP   1 IN STRESS PERIOD    1
     9 TOTAL ITERATIONS

 MAXIMUM HEAD CHANGE FOR EACH ITERATION (1 INDICATES THE FIRST INNER ITERATION):

    HEAD CHANGE    HEAD CHANGE    HEAD CHANGE    HEAD CHANGE    HEAD CHANGE 
   LAYER,ROW,COL  LAYER,ROW,COL  LAYER,ROW,COL  LAYER,ROW,COL  LAYER,ROW,COL
 ---------------------------------------------------------------------------
  1 -0.1364E-01  0 -0.4252E-02  0  0.4611E-02  0 -0.1182E-01  0  0.1273E-01
   ( 15,  1, 86)  (  8,  1, 12)  (  8,  1, 12)  ( 11,  1, 50)  ( 11,  1, 50)
  0 -0.2316E-02  0  0.1052E-02  0  0.7284E-03  1 -0.6894E-03
   ( 11,  1, 50)  ( 11,  1, 56)  ( 11,  1, 65)  ( 11,  1, 70)

 MAXIMUM RESIDUAL FOR EACH ITERATION (1 INDICATES THE FIRST INNER ITERATION):

    RESIDUAL       RESIDUAL       RESIDUAL       RESIDUAL       RESIDUAL    
   LAYER,ROW,COL  LAYER,ROW,COL  LAYER,ROW,COL  LAYER,ROW,COL  LAYER,ROW,COL
 ---------------------------------------------------------------------------
  1 -0.1365E+06  0  0.9695E+05  0  0.9628E+05  0  0.1998E+05  0  -4858.    
   ( 21,  1, 89)  ( 19,  1, 89)  ( 19,  1, 89)  ( 19,  1, 89)  ( 17,  1, 88)
  0  -2828.      0  -2376.      0  -734.2      1  -636.7    
   ( 22,  1, 87)  ( 22,  1, 87)  ( 22,  1, 87)  ( 22,  1, 87)


 FLOW MODEL IS TRANSIENT
 FLOW MODEL CONTAINS CONSTANT-HEAD CELLS


 MAXIMUM STEPSIZE DURING WHICH ANY PARTICLE CANNOT MOVE MORE THAN ONE CELL
 =  13.25    (WHEN MIN. R.F.=1)  AT K=  17, I=   1, J=  90

 MAXIMUM STEPSIZE WHICH MEETS STABILITY CRITERION OF THE ADVECTION TERM
 (FOR PURE FINITE-DIFFERENCE OPTION, MIXELM=0) 
 =  8.014    (WHEN MIN. R.F.=1)  AT K=  16, I=   1, J=  90


 TOTAL NUMBER OF POINT SOURCES/SINKS PRESENT IN THE FLOW MODEL =    30

 MAXIMUM STEPSIZE WHICH MEETS STABILITY CRITERION OF THE SINK & SOURCE TERM
 =  12.20    (WHEN MIN. R.F.=1)  AT K=  17, I=   1, J=  91

 MAXIMUM STEPSIZE WHICH MEETS STABILITY CRITERION OF THE DISPERSION TERM
 =  4.384    (WHEN MIN. R.F.=1)  AT K=  17, I=   1, J=  90
     1 CALLS TO GCG PACKAGE FOR TRANSPORT TIME STEP 788 IN FLOW TIME STEP   1 STRESS PERIOD   1
     9 TOTAL ITERATIONS
     1 CALLS TO GCG PACKAGE FOR TRANSPORT TIME STEP 788 IN FLOW TIME STEP   1 STRESS PERIOD   1
     8 TOTAL ITERATIONS
 
 SOLVING FOR HEAD 


     2 CALLS TO PCG ROUTINE FOR TIME STEP   1 IN STRESS PERIOD    1
     9 TOTAL ITERATIONS

 MAXIMUM HEAD CHANGE FOR EACH ITERATION (1 INDICATES THE FIRST INNER ITERATION):

    HEAD CHANGE    HEAD CHANGE    HEAD CHANGE    HEAD CHANGE    HEAD CHANGE 
   LAYER,ROW,COL  LAYER,ROW,COL  LAYER,ROW,COL  LAYER,ROW,COL  LAYER,ROW,COL
 ---------------------------------------------------------------------------
  1  0.1327E-01  0 -0.3718E-02  0  0.8360E-02  0  0.4797E-02  0 -0.5080E-02
   ( 15,  1, 86)  ( 17,  1, 89)  (  7,  1, 45)  (  9,  1, 12)  (  6,  1, 42)
  0  0.1812E-02  0 -0.1179E-02  0 -0.9511E-03  1  0.8374E-03
   ( 11,  1, 63)  ( 11,  1, 61)  ( 11,  1, 69)  ( 11,  1, 66)

 MAXIMUM RESIDUAL FOR EACH ITERATION (1 INDICATES THE FIRST INNER ITERATION):

    RESIDUAL       RESIDUAL       RESIDUAL       RESIDUAL       RESIDUAL    
   LAYER,ROW,COL  LAYER,ROW,COL  LAYER,ROW,COL  LAYER,ROW,COL  LAYER,ROW,COL
 ---------------------------------------------------------------------------
  1  0.1354E+06  0 -0.9574E+05  0 -0.4603E+05  0 -0.2038E+05  0  -6143.    
   ( 21,  1, 89)  ( 19,  1, 89)  ( 19,  1, 89)  ( 19,  1, 89)  ( 17,  1, 87)
  0   2861.      0   2524.      0   887.5      1   735.5    
   ( 22,  1, 87)  ( 22,  1, 87)  ( 22,  1, 87)  ( 22,  1, 87)


 FLOW MODEL IS TRANSIENT
 FLOW MODEL CONTAINS CONSTANT-HEAD CELLS


 MAXIMUM STEPSIZE DURING WHICH ANY PARTICLE CANNOT MOVE MORE THAN ONE CELL
 =  12.86    (WHEN MIN. R.F.=1)  AT K=  17, I=   1, J=  90

 MAXIMUM STEPSIZE WHICH MEETS STABILITY CRITERION OF THE ADVECTION TERM
 (FOR PURE FINITE-DIFFERENCE OPTION, MIXELM=0) 
 =  8.038    (WHEN MIN. R.F.=1)  AT K=  16, I=   1, J=  90


 TOTAL NUMBER OF POINT SOURCES/SINKS PRESENT IN THE FLOW MODEL =    30

 MAXIMUM STEPSIZE WHICH MEETS STABILITY CRITERION OF THE SINK & SOURCE TERM
 =  12.21    (WHEN MIN. R.F.=1)  AT K=  17, I=   1, J=  91

 MAXIMUM STEPSIZE WHICH MEETS STABILITY CRITERION OF THE DISPERSION TERM
 =  4.029    (WHEN MIN. R.F.=1)  AT K=  17, I=   1, J=  90
     1 CALLS TO GCG PACKAGE FOR TRANSPORT TIME STEP 789 IN FLOW TIME STEP   1 STRESS PERIOD   1
     8 TOTAL ITERATIONS
     1 CALLS TO GCG PACKAGE FOR TRANSPORT TIME STEP 789 IN FLOW TIME STEP   1 STRESS PERIOD   1
     8 TOTAL ITERATIONS
 
 SOLVING FOR HEAD 


     2 CALLS TO PCG ROUTINE FOR TIME STEP   1 IN STRESS PERIOD    1
     8 TOTAL ITERATIONS

 MAXIMUM HEAD CHANGE FOR EACH ITERATION (1 INDICATES THE FIRST INNER ITERATION):

    HEAD CHANGE    HEAD CHANGE    HEAD CHANGE    HEAD CHANGE    HEAD CHANGE 
   LAYER,ROW,COL  LAYER,ROW,COL  LAYER,ROW,COL  LAYER,ROW,COL  LAYER,ROW,COL
 ---------------------------------------------------------------------------
  1 -0.1352E-01  0  0.3746E-02  0  0.3826E-02  0  0.1043E-01  0 -0.1197E-01
   ( 15,  1, 86)  ( 17,  1, 89)  (  8,  1, 12)  ( 11,  1, 58)  ( 11,  1, 58)
  0  0.2148E-02  0 -0.9185E-03  1  0.6554E-03
   ( 11,  1, 58)  ( 11,  1, 66)  ( 11,  1, 65)

 MAXIMUM RESIDUAL FOR EACH ITERATION (1 INDICATES THE FIRST INNER ITERATION):

    RESIDUAL       RESIDUAL       RESIDUAL       RESIDUAL       RESIDUAL    
   LAYER,ROW,COL  LAYER,ROW,COL  LAYER,ROW,COL  LAYER,ROW,COL  LAYER,ROW,COL
 ---------------------------------------------------------------------------
  1 -0.1342E+06  0  0.9420E+05  0  0.9341E+05  0  0.2149E+05  0   4941.    
   ( 21,  1, 89)  ( 19,  1, 89)  ( 19,  1, 89)  ( 19,  1, 89)  ( 17,  1, 87)
  0  -2810.      0  -2506.      1  -2044.    
   ( 22,  1, 87)  ( 22,  1, 87)  ( 22,  1, 87)


 FLOW MODEL IS TRANSIENT
 FLOW MODEL CONTAINS CONSTANT-HEAD CELLS


 MAXIMUM STEPSIZE DURING WHICH ANY PARTICLE CANNOT MOVE MORE THAN ONE CELL
 =  13.23    (WHEN MIN. R.F.=1)  AT K=  17, I=   1, J=  90

 MAXIMUM STEPSIZE WHICH MEETS STABILITY CRITERION OF THE ADVECTION TERM
 (FOR PURE FINITE-DIFFERENCE OPTION, MIXELM=0) 
 =  8.011    (WHEN MIN. R.F.=1)  AT K=  16, I=   1, J=  90


 TOTAL NUMBER OF POINT SOURCES/SINKS PRESENT IN THE FLOW MODEL =    30

 MAXIMUM STEPSIZE WHICH MEETS STABILITY CRITERION OF THE SINK & SOURCE TERM
 =  12.17    (WHEN MIN. R.F.=1)  AT K=  17, I=   1, J=  91

 MAXIMUM STEPSIZE WHICH MEETS STABILITY CRITERION OF THE DISPERSION TERM
 =  4.369    (WHEN MIN. R.F.=1)  AT K=  17, I=   1, J=  90
     1 CALLS TO GCG PACKAGE FOR TRANSPORT TIME STEP 790 IN FLOW TIME STEP   1 STRESS PERIOD   1
     8 TOTAL ITERATIONS
  MAXIMUM CONCENTRATION CHANGES FOR EACH ITERATION:
  MAX. CHANGE LAYER,ROW,COL MAX. CHANGE LAYER,ROW,COL MAX. CHANGE LAYER,ROW,COL MAX. CHANGE LAYER,ROW,COL MAX. CHANGE LAYER,ROW,COL
 ------------------------------------------------------------------------------------------------------------------------------------
   0.4889E-01 ( 20,  1, 87)  0.3327E-02 ( 19,  1, 87)  0.2193E-02 ( 18,  1, 87)  0.2171E-03 ( 16,  1, 88)  0.1452E-03 ( 16,  1, 89)
   0.2804E-04 ( 16,  1, 90)  0.3254E-05 ( 21,  1, 78)  0.8573E-06 ( 16,  1, 89)
     1 CALLS TO GCG PACKAGE FOR TRANSPORT TIME STEP 790 IN FLOW TIME STEP   1 STRESS PERIOD   1
     8 TOTAL ITERATIONS
  MAXIMUM CONCENTRATION CHANGES FOR EACH ITERATION:
  MAX. CHANGE LAYER,ROW,COL MAX. CHANGE LAYER,ROW,COL MAX. CHANGE LAYER,ROW,COL MAX. CHANGE LAYER,ROW,COL MAX. CHANGE LAYER,ROW,COL
 ------------------------------------------------------------------------------------------------------------------------------------
   0.5194E-01 ( 20,  1, 87)  0.3440E-02 ( 19,  1, 87)  0.2294E-02 ( 18,  1, 87)  0.2179E-03 ( 16,  1, 88)  0.1313E-03 ( 16,  1, 89)
   0.3303E-04 ( 16,  1, 90)  0.4732E-05 ( 17,  1, 90)  0.5290E-06 ( 16,  1, 89)



 >>>>>>>>>>>>>>>>>>>>>>>>>>>>>>>>>>>>>>>>>>>>>>>>>>>>>>>FOR COMPONENT NO. 01<<<<<<<<<<<<<<<<<<<<<<<<<<<<<<<<<<<<<<<<<<<<<<<<<<<<<<<


                                            -------------------------------------------
                                                      TRANSPORT STEP NO.  790
                                            -------------------------------------------

 TOTAL ELAPSED TIME SINCE BEGINNING OF SIMULATION =   39500.00    D   
 .....................................................................

                     CUMMULATIVE MASS BUDGETS AT END OF TRANSPORT STEP  790, TIME STEP    1, STRESS PERIOD    1
                     ------------------------------------------------------------------------------------------

                                                             IN                           OUT
                                                      ----------------             ----------------
                               CONSTANT CONCENTRATION:    0.000000                    0.000000    
                                        CONSTANT HEAD:   0.1562949E+10              -0.1562734E+10
                                                WELLS:    0.000000                    0.000000    
                                             RECHARGE:    0.000000                    0.000000    
                               1ST/0TH ORDER REACTION:    0.000000                    0.000000    
                                MASS STORAGE (SOLUTE):   0.2184601E+09              -0.2186750E+09
                            ---------------------------------------------------------------------------
                                              [TOTAL]:   0.1781411E+10 KG           -0.1781411E+10 KG  

                                                          NET (IN - OUT):   -275.8389    
                                                   DISCREPANCY (PERCENT):  -0.1548430E-04



 >>>>>>>>>>>>>>>>>>>>>>>>>>>>>>>>>>>>>>>>>>>>>>>>>>>>>>>FOR COMPONENT NO. 02<<<<<<<<<<<<<<<<<<<<<<<<<<<<<<<<<<<<<<<<<<<<<<<<<<<<<<<


                                            -------------------------------------------
                                                      TRANSPORT STEP NO.  790
                                            -------------------------------------------

 TOTAL ELAPSED TIME SINCE BEGINNING OF SIMULATION =   39500.00    D   
 .....................................................................

                     CUMMULATIVE MASS BUDGETS AT END OF TRANSPORT STEP  790, TIME STEP    1, STRESS PERIOD    1
                     ------------------------------------------------------------------------------------------

                                                             IN                           OUT
                                                      ----------------             ----------------
                               CONSTANT CONCENTRATION:    0.000000                    0.000000    
                                        CONSTANT HEAD:    0.000000                  -0.3205858E+12
                                                WELLS:    0.000000                    0.000000    
                                             RECHARGE:    0.000000                    0.000000    
                               1ST/0TH ORDER REACTION:   0.6537250E+12                0.000000    
                                MASS STORAGE (SOLUTE):   0.1204097E+12              -0.4535490E+12
                            ---------------------------------------------------------------------------
                                              [TOTAL]:   0.7741363E+12 KG           -0.7741364E+12 KG  

                                                          NET (IN - OUT):   -104774.2    
                                                   DISCREPANCY (PERCENT):  -0.1353433E-04
 
 SOLVING FOR HEAD 


     2 CALLS TO PCG ROUTINE FOR TIME STEP   1 IN STRESS PERIOD    1
    10 TOTAL ITERATIONS

 MAXIMUM HEAD CHANGE FOR EACH ITERATION (1 INDICATES THE FIRST INNER ITERATION):

    HEAD CHANGE    HEAD CHANGE    HEAD CHANGE    HEAD CHANGE    HEAD CHANGE 
   LAYER,ROW,COL  LAYER,ROW,COL  LAYER,ROW,COL  LAYER,ROW,COL  LAYER,ROW,COL
 ---------------------------------------------------------------------------
  1  0.1379E-01  0  0.7007E-02  0 -0.3204E-02  0 -0.8483E-02  0  0.6083E-02
   ( 15,  1, 86)  (  8,  1, 43)  (  7,  1, 12)  (  7,  1, 45)  ( 10,  1, 50)
  0 -0.3730E-02  0  0.1374E-02  0 -0.1015E-02  0  0.7641E-03  1  0.2259E-03
   ( 11,  1, 59)  ( 11,  1, 58)  ( 11,  1, 64)  ( 11,  1, 64)  ( 11,  1, 70)

 MAXIMUM RESIDUAL FOR EACH ITERATION (1 INDICATES THE FIRST INNER ITERATION):

    RESIDUAL       RESIDUAL       RESIDUAL       RESIDUAL       RESIDUAL    
   LAYER,ROW,COL  LAYER,ROW,COL  LAYER,ROW,COL  LAYER,ROW,COL  LAYER,ROW,COL
 ---------------------------------------------------------------------------
  1  0.1336E+06  0 -0.9455E+05  0 -0.9354E+05  0 -0.7608E+05  0  -6121.    
   ( 21,  1, 89)  ( 19,  1, 89)  ( 19,  1, 89)  ( 19,  1, 89)  ( 17,  1, 87)
  0   2813.      0   2615.      0   1327.      0   368.9      1   318.5    
   ( 17,  1, 88)  ( 22,  1, 87)  ( 22,  1, 87)  ( 22,  1, 87)  ( 22,  1, 87)


 FLOW MODEL IS TRANSIENT
 FLOW MODEL CONTAINS CONSTANT-HEAD CELLS


 MAXIMUM STEPSIZE DURING WHICH ANY PARTICLE CANNOT MOVE MORE THAN ONE CELL
 =  12.92    (WHEN MIN. R.F.=1)  AT K=  17, I=   1, J=  90

 MAXIMUM STEPSIZE WHICH MEETS STABILITY CRITERION OF THE ADVECTION TERM
 (FOR PURE FINITE-DIFFERENCE OPTION, MIXELM=0) 
 =  8.063    (WHEN MIN. R.F.=1)  AT K=  16, I=   1, J=  90


 TOTAL NUMBER OF POINT SOURCES/SINKS PRESENT IN THE FLOW MODEL =    30

 MAXIMUM STEPSIZE WHICH MEETS STABILITY CRITERION OF THE SINK & SOURCE TERM
 =  12.28    (WHEN MIN. R.F.=1)  AT K=  17, I=   1, J=  91

 MAXIMUM STEPSIZE WHICH MEETS STABILITY CRITERION OF THE DISPERSION TERM
 =  4.051    (WHEN MIN. R.F.=1)  AT K=  17, I=   1, J=  90
     1 CALLS TO GCG PACKAGE FOR TRANSPORT TIME STEP 791 IN FLOW TIME STEP   1 STRESS PERIOD   1
     8 TOTAL ITERATIONS
     1 CALLS TO GCG PACKAGE FOR TRANSPORT TIME STEP 791 IN FLOW TIME STEP   1 STRESS PERIOD   1
     8 TOTAL ITERATIONS
 
 SOLVING FOR HEAD 


     2 CALLS TO PCG ROUTINE FOR TIME STEP   1 IN STRESS PERIOD    1
     8 TOTAL ITERATIONS

 MAXIMUM HEAD CHANGE FOR EACH ITERATION (1 INDICATES THE FIRST INNER ITERATION):

    HEAD CHANGE    HEAD CHANGE    HEAD CHANGE    HEAD CHANGE    HEAD CHANGE 
   LAYER,ROW,COL  LAYER,ROW,COL  LAYER,ROW,COL  LAYER,ROW,COL  LAYER,ROW,COL
 ---------------------------------------------------------------------------
  1 -0.1355E-01  0  0.3881E-02  0  0.3321E-02  0  0.5410E-02  0 -0.7708E-02
   ( 15,  1, 86)  ( 17,  1, 89)  (  8,  1, 12)  ( 11,  1, 63)  ( 11,  1, 63)
  0 -0.2244E-02  0  0.8549E-03  1  0.6222E-03
   ( 11,  1, 51)  ( 11,  1, 63)  ( 11,  1, 69)

 MAXIMUM RESIDUAL FOR EACH ITERATION (1 INDICATES THE FIRST INNER ITERATION):

    RESIDUAL       RESIDUAL       RESIDUAL       RESIDUAL       RESIDUAL    
   LAYER,ROW,COL  LAYER,ROW,COL  LAYER,ROW,COL  LAYER,ROW,COL  LAYER,ROW,COL
 ---------------------------------------------------------------------------
  1 -0.1352E+06  0  0.9603E+05  0  0.9510E+05  0  0.1345E+05  0  -4057.    
   ( 21,  1, 89)  ( 19,  1, 89)  ( 19,  1, 89)  ( 19,  1, 89)  ( 17,  1, 88)
  0  -2837.      0  -2282.      1  -1991.    
   ( 22,  1, 87)  ( 22,  1, 87)  ( 22,  1, 87)


 FLOW MODEL IS TRANSIENT
 FLOW MODEL CONTAINS CONSTANT-HEAD CELLS


 MAXIMUM STEPSIZE DURING WHICH ANY PARTICLE CANNOT MOVE MORE THAN ONE CELL
 =  13.27    (WHEN MIN. R.F.=1)  AT K=  17, I=   1, J=  90

 MAXIMUM STEPSIZE WHICH MEETS STABILITY CRITERION OF THE ADVECTION TERM
 (FOR PURE FINITE-DIFFERENCE OPTION, MIXELM=0) 
 =  8.024    (WHEN MIN. R.F.=1)  AT K=  16, I=   1, J=  90


 TOTAL NUMBER OF POINT SOURCES/SINKS PRESENT IN THE FLOW MODEL =    30

 MAXIMUM STEPSIZE WHICH MEETS STABILITY CRITERION OF THE SINK & SOURCE TERM
 =  12.22    (WHEN MIN. R.F.=1)  AT K=  17, I=   1, J=  91

 MAXIMUM STEPSIZE WHICH MEETS STABILITY CRITERION OF THE DISPERSION TERM
 =  4.386    (WHEN MIN. R.F.=1)  AT K=  17, I=   1, J=  90
     1 CALLS TO GCG PACKAGE FOR TRANSPORT TIME STEP 792 IN FLOW TIME STEP   1 STRESS PERIOD   1
    10 TOTAL ITERATIONS
     1 CALLS TO GCG PACKAGE FOR TRANSPORT TIME STEP 792 IN FLOW TIME STEP   1 STRESS PERIOD   1
     8 TOTAL ITERATIONS
 
 SOLVING FOR HEAD 


     2 CALLS TO PCG ROUTINE FOR TIME STEP   1 IN STRESS PERIOD    1
    10 TOTAL ITERATIONS

 MAXIMUM HEAD CHANGE FOR EACH ITERATION (1 INDICATES THE FIRST INNER ITERATION):

    HEAD CHANGE    HEAD CHANGE    HEAD CHANGE    HEAD CHANGE    HEAD CHANGE 
   LAYER,ROW,COL  LAYER,ROW,COL  LAYER,ROW,COL  LAYER,ROW,COL  LAYER,ROW,COL
 ---------------------------------------------------------------------------
  1  0.1358E-01  0  0.4260E-02  0 -0.2854E-02  0 -0.1024E-01  0  0.8154E-02
   ( 15,  1, 86)  ( 11,  1, 69)  (  7,  1, 12)  ( 11,  1, 69)  ( 11,  1, 68)
  0 -0.4166E-02  0  0.1554E-02  0 -0.1015E-02  0  0.8022E-03  1  0.2696E-03
   ( 11,  1, 63)  ( 11,  1, 63)  ( 11,  1, 59)  ( 11,  1, 58)  ( 11,  1, 65)

 MAXIMUM RESIDUAL FOR EACH ITERATION (1 INDICATES THE FIRST INNER ITERATION):

    RESIDUAL       RESIDUAL       RESIDUAL       RESIDUAL       RESIDUAL    
   LAYER,ROW,COL  LAYER,ROW,COL  LAYER,ROW,COL  LAYER,ROW,COL  LAYER,ROW,COL
 ---------------------------------------------------------------------------
  1  0.1363E+06  0 -0.9661E+05  0 -0.9549E+05  0 -0.6152E+05  0  -6015.    
   ( 21,  1, 89)  ( 19,  1, 89)  ( 19,  1, 89)  ( 19,  1, 89)  ( 17,  1, 87)
  0   2774.      0   2600.      0   1020.      0   377.8      1   330.1    
   ( 22,  1, 87)  ( 22,  1, 87)  ( 22,  1, 87)  ( 22,  1, 87)  ( 22,  1, 87)


 FLOW MODEL IS TRANSIENT
 FLOW MODEL CONTAINS CONSTANT-HEAD CELLS


 MAXIMUM STEPSIZE DURING WHICH ANY PARTICLE CANNOT MOVE MORE THAN ONE CELL
 =  12.91    (WHEN MIN. R.F.=1)  AT K=  17, I=   1, J=  90

 MAXIMUM STEPSIZE WHICH MEETS STABILITY CRITERION OF THE ADVECTION TERM
 (FOR PURE FINITE-DIFFERENCE OPTION, MIXELM=0) 
 =  8.063    (WHEN MIN. R.F.=1)  AT K=  16, I=   1, J=  90


 TOTAL NUMBER OF POINT SOURCES/SINKS PRESENT IN THE FLOW MODEL =    30

 MAXIMUM STEPSIZE WHICH MEETS STABILITY CRITERION OF THE SINK & SOURCE TERM
 =  12.28    (WHEN MIN. R.F.=1)  AT K=  17, I=   1, J=  91

 MAXIMUM STEPSIZE WHICH MEETS STABILITY CRITERION OF THE DISPERSION TERM
 =  4.050    (WHEN MIN. R.F.=1)  AT K=  17, I=   1, J=  90
     1 CALLS TO GCG PACKAGE FOR TRANSPORT TIME STEP 793 IN FLOW TIME STEP   1 STRESS PERIOD   1
     8 TOTAL ITERATIONS
     1 CALLS TO GCG PACKAGE FOR TRANSPORT TIME STEP 793 IN FLOW TIME STEP   1 STRESS PERIOD   1
     8 TOTAL ITERATIONS
 
 SOLVING FOR HEAD 


     2 CALLS TO PCG ROUTINE FOR TIME STEP   1 IN STRESS PERIOD    1
     8 TOTAL ITERATIONS

 MAXIMUM HEAD CHANGE FOR EACH ITERATION (1 INDICATES THE FIRST INNER ITERATION):

    HEAD CHANGE    HEAD CHANGE    HEAD CHANGE    HEAD CHANGE    HEAD CHANGE 
   LAYER,ROW,COL  LAYER,ROW,COL  LAYER,ROW,COL  LAYER,ROW,COL  LAYER,ROW,COL
 ---------------------------------------------------------------------------
  1 -0.1357E-01  0  0.3905E-02  0  0.4062E-02  0  0.8152E-02  0 -0.1036E-01
   ( 15,  1, 86)  ( 17,  1, 89)  (  8,  1, 12)  ( 11,  1, 57)  ( 11,  1, 57)
  0  0.2431E-02  0  0.7019E-03  1  0.6217E-03
   ( 11,  1, 57)  ( 11,  1, 58)  ( 11,  1, 64)

 MAXIMUM RESIDUAL FOR EACH ITERATION (1 INDICATES THE FIRST INNER ITERATION):

    RESIDUAL       RESIDUAL       RESIDUAL       RESIDUAL       RESIDUAL    
   LAYER,ROW,COL  LAYER,ROW,COL  LAYER,ROW,COL  LAYER,ROW,COL  LAYER,ROW,COL
 ---------------------------------------------------------------------------
  1 -0.1364E+06  0  0.9677E+05  0  0.9599E+05  0  0.1566E+05  0   4443.    
   ( 21,  1, 89)  ( 19,  1, 89)  ( 19,  1, 89)  ( 19,  1, 89)  ( 17,  1, 87)
  0  -2850.      0  -2333.      1  -2038.    
   ( 22,  1, 87)  ( 22,  1, 87)  ( 22,  1, 87)


 FLOW MODEL IS TRANSIENT
 FLOW MODEL CONTAINS CONSTANT-HEAD CELLS


 MAXIMUM STEPSIZE DURING WHICH ANY PARTICLE CANNOT MOVE MORE THAN ONE CELL
 =  13.27    (WHEN MIN. R.F.=1)  AT K=  17, I=   1, J=  90

 MAXIMUM STEPSIZE WHICH MEETS STABILITY CRITERION OF THE ADVECTION TERM
 (FOR PURE FINITE-DIFFERENCE OPTION, MIXELM=0) 
 =  8.025    (WHEN MIN. R.F.=1)  AT K=  16, I=   1, J=  90


 TOTAL NUMBER OF POINT SOURCES/SINKS PRESENT IN THE FLOW MODEL =    30

 MAXIMUM STEPSIZE WHICH MEETS STABILITY CRITERION OF THE SINK & SOURCE TERM
 =  12.22    (WHEN MIN. R.F.=1)  AT K=  17, I=   1, J=  91

 MAXIMUM STEPSIZE WHICH MEETS STABILITY CRITERION OF THE DISPERSION TERM
 =  4.388    (WHEN MIN. R.F.=1)  AT K=  17, I=   1, J=  90
     1 CALLS TO GCG PACKAGE FOR TRANSPORT TIME STEP 794 IN FLOW TIME STEP   1 STRESS PERIOD   1
     7 TOTAL ITERATIONS
     1 CALLS TO GCG PACKAGE FOR TRANSPORT TIME STEP 794 IN FLOW TIME STEP   1 STRESS PERIOD   1
     8 TOTAL ITERATIONS
 
 SOLVING FOR HEAD 


     2 CALLS TO PCG ROUTINE FOR TIME STEP   1 IN STRESS PERIOD    1
     9 TOTAL ITERATIONS

 MAXIMUM HEAD CHANGE FOR EACH ITERATION (1 INDICATES THE FIRST INNER ITERATION):

    HEAD CHANGE    HEAD CHANGE    HEAD CHANGE    HEAD CHANGE    HEAD CHANGE 
   LAYER,ROW,COL  LAYER,ROW,COL  LAYER,ROW,COL  LAYER,ROW,COL  LAYER,ROW,COL
 ---------------------------------------------------------------------------
  1  0.1359E-01  0  0.4523E-02  0 -0.2806E-02  0 -0.9296E-02  0  0.8064E-02
   ( 15,  1, 86)  (  8,  1, 43)  (  7,  1, 12)  (  8,  1, 45)  (  9,  1, 46)
  0  0.3020E-02  0 -0.1457E-02  0 -0.8994E-03  1  0.8099E-03
   ( 11,  1, 50)  ( 11,  1, 50)  ( 11,  1, 63)  ( 11,  1, 63)

 MAXIMUM RESIDUAL FOR EACH ITERATION (1 INDICATES THE FIRST INNER ITERATION):

    RESIDUAL       RESIDUAL       RESIDUAL       RESIDUAL       RESIDUAL    
   LAYER,ROW,COL  LAYER,ROW,COL  LAYER,ROW,COL  LAYER,ROW,COL  LAYER,ROW,COL
 ---------------------------------------------------------------------------
  1  0.1365E+06  0 -0.9708E+05  0 -0.9591E+05  0 -0.6389E+05  0  -5977.    
   ( 21,  1, 89)  ( 19,  1, 89)  ( 19,  1, 89)  ( 19,  1, 89)  ( 17,  1, 87)
  0   2790.      0   2608.      0   995.7      1   879.4    
   ( 22,  1, 87)  ( 22,  1, 87)  ( 22,  1, 87)  ( 22,  1, 87)


 FLOW MODEL IS TRANSIENT
 FLOW MODEL CONTAINS CONSTANT-HEAD CELLS


 MAXIMUM STEPSIZE DURING WHICH ANY PARTICLE CANNOT MOVE MORE THAN ONE CELL
 =  12.91    (WHEN MIN. R.F.=1)  AT K=  17, I=   1, J=  90

 MAXIMUM STEPSIZE WHICH MEETS STABILITY CRITERION OF THE ADVECTION TERM
 (FOR PURE FINITE-DIFFERENCE OPTION, MIXELM=0) 
 =  8.062    (WHEN MIN. R.F.=1)  AT K=  16, I=   1, J=  90


 TOTAL NUMBER OF POINT SOURCES/SINKS PRESENT IN THE FLOW MODEL =    30

 MAXIMUM STEPSIZE WHICH MEETS STABILITY CRITERION OF THE SINK & SOURCE TERM
 =  12.28    (WHEN MIN. R.F.=1)  AT K=  17, I=   1, J=  91

 MAXIMUM STEPSIZE WHICH MEETS STABILITY CRITERION OF THE DISPERSION TERM
 =  4.047    (WHEN MIN. R.F.=1)  AT K=  17, I=   1, J=  90
     1 CALLS TO GCG PACKAGE FOR TRANSPORT TIME STEP 795 IN FLOW TIME STEP   1 STRESS PERIOD   1
     8 TOTAL ITERATIONS
  MAXIMUM CONCENTRATION CHANGES FOR EACH ITERATION:
  MAX. CHANGE LAYER,ROW,COL MAX. CHANGE LAYER,ROW,COL MAX. CHANGE LAYER,ROW,COL MAX. CHANGE LAYER,ROW,COL MAX. CHANGE LAYER,ROW,COL
 ------------------------------------------------------------------------------------------------------------------------------------
   0.5202E-01 ( 20,  1, 87)  0.4247E-02 ( 19,  1, 89)  0.2089E-02 ( 17,  1, 86)  0.5043E-03 ( 20,  1, 89)  0.9635E-04 ( 16,  1, 89)
   0.2028E-04 ( 20,  1, 89)  0.2078E-04 ( 16,  1, 90)  0.6715E-06 ( 17,  1, 90)
     1 CALLS TO GCG PACKAGE FOR TRANSPORT TIME STEP 795 IN FLOW TIME STEP   1 STRESS PERIOD   1
     8 TOTAL ITERATIONS
  MAXIMUM CONCENTRATION CHANGES FOR EACH ITERATION:
  MAX. CHANGE LAYER,ROW,COL MAX. CHANGE LAYER,ROW,COL MAX. CHANGE LAYER,ROW,COL MAX. CHANGE LAYER,ROW,COL MAX. CHANGE LAYER,ROW,COL
 ------------------------------------------------------------------------------------------------------------------------------------
   0.5540E-01 ( 20,  1, 87)  0.4594E-02 ( 19,  1, 89)  0.2049E-02 ( 18,  1, 86)  0.4603E-03 ( 20,  1, 89)  0.1016E-03 ( 16,  1, 89)
   0.1661E-04 ( 23,  1, 87)  0.1744E-04 ( 16,  1, 90)  0.8095E-06 ( 17,  1, 90)
 
 SOLVING FOR HEAD 


     2 CALLS TO PCG ROUTINE FOR TIME STEP   1 IN STRESS PERIOD    1
     9 TOTAL ITERATIONS

 MAXIMUM HEAD CHANGE FOR EACH ITERATION (1 INDICATES THE FIRST INNER ITERATION):

    HEAD CHANGE    HEAD CHANGE    HEAD CHANGE    HEAD CHANGE    HEAD CHANGE 
   LAYER,ROW,COL  LAYER,ROW,COL  LAYER,ROW,COL  LAYER,ROW,COL  LAYER,ROW,COL
 ---------------------------------------------------------------------------
  1 -0.1368E-01  0 -0.4130E-02  0  0.4570E-02  0 -0.9351E-02  0  0.9356E-02
   ( 15,  1, 86)  (  7,  1, 12)  (  8,  1, 12)  ( 11,  1, 62)  ( 11,  1, 62)
  0  0.1830E-02  0  0.1056E-02  0  0.7428E-03  1 -0.4598E-03
   ( 11,  1, 50)  ( 11,  1, 70)  ( 11,  1, 63)  ( 11,  1, 59)

 MAXIMUM RESIDUAL FOR EACH ITERATION (1 INDICATES THE FIRST INNER ITERATION):

    RESIDUAL       RESIDUAL       RESIDUAL       RESIDUAL       RESIDUAL    
   LAYER,ROW,COL  LAYER,ROW,COL  LAYER,ROW,COL  LAYER,ROW,COL  LAYER,ROW,COL
 ---------------------------------------------------------------------------
  1 -0.1372E+06  0  0.9742E+05  0  0.9673E+05  0  0.1951E+05  0  -4700.    
   ( 21,  1, 89)  ( 19,  1, 89)  ( 19,  1, 89)  ( 19,  1, 89)  ( 17,  1, 88)
  0  -2842.      0  -2333.      0  -730.0      1  -640.3    
   ( 22,  1, 87)  ( 22,  1, 87)  ( 22,  1, 87)  ( 22,  1, 87)


 FLOW MODEL IS TRANSIENT
 FLOW MODEL CONTAINS CONSTANT-HEAD CELLS


 MAXIMUM STEPSIZE DURING WHICH ANY PARTICLE CANNOT MOVE MORE THAN ONE CELL
 =  13.24    (WHEN MIN. R.F.=1)  AT K=  17, I=   1, J=  90

 MAXIMUM STEPSIZE WHICH MEETS STABILITY CRITERION OF THE ADVECTION TERM
 (FOR PURE FINITE-DIFFERENCE OPTION, MIXELM=0) 
 =  8.013    (WHEN MIN. R.F.=1)  AT K=  16, I=   1, J=  90


 TOTAL NUMBER OF POINT SOURCES/SINKS PRESENT IN THE FLOW MODEL =    30

 MAXIMUM STEPSIZE WHICH MEETS STABILITY CRITERION OF THE SINK & SOURCE TERM
 =  12.19    (WHEN MIN. R.F.=1)  AT K=  17, I=   1, J=  91

 MAXIMUM STEPSIZE WHICH MEETS STABILITY CRITERION OF THE DISPERSION TERM
 =  4.379    (WHEN MIN. R.F.=1)  AT K=  17, I=   1, J=  90
     1 CALLS TO GCG PACKAGE FOR TRANSPORT TIME STEP 796 IN FLOW TIME STEP   1 STRESS PERIOD   1
     9 TOTAL ITERATIONS
     1 CALLS TO GCG PACKAGE FOR TRANSPORT TIME STEP 796 IN FLOW TIME STEP   1 STRESS PERIOD   1
     8 TOTAL ITERATIONS
 
 SOLVING FOR HEAD 


     2 CALLS TO PCG ROUTINE FOR TIME STEP   1 IN STRESS PERIOD    1
     9 TOTAL ITERATIONS

 MAXIMUM HEAD CHANGE FOR EACH ITERATION (1 INDICATES THE FIRST INNER ITERATION):

    HEAD CHANGE    HEAD CHANGE    HEAD CHANGE    HEAD CHANGE    HEAD CHANGE 
   LAYER,ROW,COL  LAYER,ROW,COL  LAYER,ROW,COL  LAYER,ROW,COL  LAYER,ROW,COL
 ---------------------------------------------------------------------------
  1  0.1328E-01  0 -0.3686E-02  0  0.6328E-02  0 -0.5750E-02  0 -0.8656E-02
   ( 15,  1, 86)  ( 17,  1, 89)  (  6,  1, 44)  (  9,  1, 12)  (  7,  1, 47)
  0  0.2235E-02  0 -0.1222E-02  0 -0.9177E-03  1  0.7083E-03
   ( 11,  1, 66)  ( 11,  1, 67)  ( 11,  1, 55)  ( 11,  1, 54)

 MAXIMUM RESIDUAL FOR EACH ITERATION (1 INDICATES THE FIRST INNER ITERATION):

    RESIDUAL       RESIDUAL       RESIDUAL       RESIDUAL       RESIDUAL    
   LAYER,ROW,COL  LAYER,ROW,COL  LAYER,ROW,COL  LAYER,ROW,COL  LAYER,ROW,COL
 ---------------------------------------------------------------------------
  1  0.1354E+06  0 -0.9573E+05  0 -0.6868E+05  0 -0.3614E+05  0  -6102.    
   ( 21,  1, 89)  ( 19,  1, 89)  ( 19,  1, 89)  ( 19,  1, 89)  ( 17,  1, 87)
  0   2863.      0   2546.      0   953.2      1   798.3    
   ( 22,  1, 87)  ( 22,  1, 87)  ( 22,  1, 87)  ( 22,  1, 87)


 FLOW MODEL IS TRANSIENT
 FLOW MODEL CONTAINS CONSTANT-HEAD CELLS


 MAXIMUM STEPSIZE DURING WHICH ANY PARTICLE CANNOT MOVE MORE THAN ONE CELL
 =  12.86    (WHEN MIN. R.F.=1)  AT K=  17, I=   1, J=  90

 MAXIMUM STEPSIZE WHICH MEETS STABILITY CRITERION OF THE ADVECTION TERM
 (FOR PURE FINITE-DIFFERENCE OPTION, MIXELM=0) 
 =  8.038    (WHEN MIN. R.F.=1)  AT K=  16, I=   1, J=  90


 TOTAL NUMBER OF POINT SOURCES/SINKS PRESENT IN THE FLOW MODEL =    30

 MAXIMUM STEPSIZE WHICH MEETS STABILITY CRITERION OF THE SINK & SOURCE TERM
 =  12.20    (WHEN MIN. R.F.=1)  AT K=  17, I=   1, J=  91

 MAXIMUM STEPSIZE WHICH MEETS STABILITY CRITERION OF THE DISPERSION TERM
 =  4.028    (WHEN MIN. R.F.=1)  AT K=  17, I=   1, J=  90
     1 CALLS TO GCG PACKAGE FOR TRANSPORT TIME STEP 797 IN FLOW TIME STEP   1 STRESS PERIOD   1
     8 TOTAL ITERATIONS
     1 CALLS TO GCG PACKAGE FOR TRANSPORT TIME STEP 797 IN FLOW TIME STEP   1 STRESS PERIOD   1
     8 TOTAL ITERATIONS
 
 SOLVING FOR HEAD 


     2 CALLS TO PCG ROUTINE FOR TIME STEP   1 IN STRESS PERIOD    1
     8 TOTAL ITERATIONS

 MAXIMUM HEAD CHANGE FOR EACH ITERATION (1 INDICATES THE FIRST INNER ITERATION):

    HEAD CHANGE    HEAD CHANGE    HEAD CHANGE    HEAD CHANGE    HEAD CHANGE 
   LAYER,ROW,COL  LAYER,ROW,COL  LAYER,ROW,COL  LAYER,ROW,COL  LAYER,ROW,COL
 ---------------------------------------------------------------------------
  1 -0.1354E-01  0  0.3748E-02  0  0.3833E-02  0 -0.1423E-01  0  0.1368E-01
   ( 15,  1, 86)  ( 17,  1, 89)  (  8,  1, 12)  ( 11,  1, 53)  ( 11,  1, 53)
  0  0.2483E-02  0 -0.8124E-03  1  0.4960E-03
   ( 11,  1, 66)  ( 11,  1, 65)  (  8,  1, 49)

 MAXIMUM RESIDUAL FOR EACH ITERATION (1 INDICATES THE FIRST INNER ITERATION):

    RESIDUAL       RESIDUAL       RESIDUAL       RESIDUAL       RESIDUAL    
   LAYER,ROW,COL  LAYER,ROW,COL  LAYER,ROW,COL  LAYER,ROW,COL  LAYER,ROW,COL
 ---------------------------------------------------------------------------
  1 -0.1340E+06  0  0.9395E+05  0  0.9316E+05  0  0.2810E+05  0   5421.    
   ( 21,  1, 89)  ( 19,  1, 89)  ( 19,  1, 89)  ( 19,  1, 89)  ( 17,  1, 87)
  0  -2818.      0  -2536.      1  -2026.    
   ( 22,  1, 87)  ( 22,  1, 87)  ( 22,  1, 87)


 FLOW MODEL IS TRANSIENT
 FLOW MODEL CONTAINS CONSTANT-HEAD CELLS


 MAXIMUM STEPSIZE DURING WHICH ANY PARTICLE CANNOT MOVE MORE THAN ONE CELL
 =  13.22    (WHEN MIN. R.F.=1)  AT K=  17, I=   1, J=  90

 MAXIMUM STEPSIZE WHICH MEETS STABILITY CRITERION OF THE ADVECTION TERM
 (FOR PURE FINITE-DIFFERENCE OPTION, MIXELM=0) 
 =  8.009    (WHEN MIN. R.F.=1)  AT K=  16, I=   1, J=  90


 TOTAL NUMBER OF POINT SOURCES/SINKS PRESENT IN THE FLOW MODEL =    30

 MAXIMUM STEPSIZE WHICH MEETS STABILITY CRITERION OF THE SINK & SOURCE TERM
 =  12.17    (WHEN MIN. R.F.=1)  AT K=  17, I=   1, J=  91

 MAXIMUM STEPSIZE WHICH MEETS STABILITY CRITERION OF THE DISPERSION TERM
 =  4.365    (WHEN MIN. R.F.=1)  AT K=  17, I=   1, J=  90
     1 CALLS TO GCG PACKAGE FOR TRANSPORT TIME STEP 798 IN FLOW TIME STEP   1 STRESS PERIOD   1
     8 TOTAL ITERATIONS
     1 CALLS TO GCG PACKAGE FOR TRANSPORT TIME STEP 798 IN FLOW TIME STEP   1 STRESS PERIOD   1
     8 TOTAL ITERATIONS
 
 SOLVING FOR HEAD 


     2 CALLS TO PCG ROUTINE FOR TIME STEP   1 IN STRESS PERIOD    1
     9 TOTAL ITERATIONS

 MAXIMUM HEAD CHANGE FOR EACH ITERATION (1 INDICATES THE FIRST INNER ITERATION):

    HEAD CHANGE    HEAD CHANGE    HEAD CHANGE    HEAD CHANGE    HEAD CHANGE 
   LAYER,ROW,COL  LAYER,ROW,COL  LAYER,ROW,COL  LAYER,ROW,COL  LAYER,ROW,COL
 ---------------------------------------------------------------------------
  1  0.1379E-01  0  0.7820E-02  0 -0.3140E-02  0 -0.9096E-02  0  0.6038E-02
   ( 15,  1, 86)  (  6,  1, 47)  (  7,  1, 12)  (  8,  1, 48)  (  7,  1, 46)
  0  0.4644E-02  0 -0.1905E-02  0 -0.9948E-03  1  0.7654E-03
   ( 11,  1, 53)  ( 11,  1, 54)  ( 11,  1, 65)  ( 11,  1, 65)

 MAXIMUM RESIDUAL FOR EACH ITERATION (1 INDICATES THE FIRST INNER ITERATION):

    RESIDUAL       RESIDUAL       RESIDUAL       RESIDUAL       RESIDUAL    
   LAYER,ROW,COL  LAYER,ROW,COL  LAYER,ROW,COL  LAYER,ROW,COL  LAYER,ROW,COL
 ---------------------------------------------------------------------------
  1  0.1335E+06  0 -0.9448E+05  0 -0.9342E+05  0 -0.7718E+05  0  -6147.    
   ( 21,  1, 89)  ( 19,  1, 89)  ( 19,  1, 89)  ( 19,  1, 89)  ( 17,  1, 87)
  0   2816.      0   2613.      0   1676.      1   1477.    
   ( 17,  1, 88)  ( 22,  1, 87)  ( 22,  1, 87)  ( 22,  1, 87)


 FLOW MODEL IS TRANSIENT
 FLOW MODEL CONTAINS CONSTANT-HEAD CELLS


 MAXIMUM STEPSIZE DURING WHICH ANY PARTICLE CANNOT MOVE MORE THAN ONE CELL
 =  12.91    (WHEN MIN. R.F.=1)  AT K=  17, I=   1, J=  90

 MAXIMUM STEPSIZE WHICH MEETS STABILITY CRITERION OF THE ADVECTION TERM
 (FOR PURE FINITE-DIFFERENCE OPTION, MIXELM=0) 
 =  8.059    (WHEN MIN. R.F.=1)  AT K=  16, I=   1, J=  90


 TOTAL NUMBER OF POINT SOURCES/SINKS PRESENT IN THE FLOW MODEL =    30

 MAXIMUM STEPSIZE WHICH MEETS STABILITY CRITERION OF THE SINK & SOURCE TERM
 =  12.27    (WHEN MIN. R.F.=1)  AT K=  17, I=   1, J=  91

 MAXIMUM STEPSIZE WHICH MEETS STABILITY CRITERION OF THE DISPERSION TERM
 =  4.047    (WHEN MIN. R.F.=1)  AT K=  17, I=   1, J=  90
     1 CALLS TO GCG PACKAGE FOR TRANSPORT TIME STEP 799 IN FLOW TIME STEP   1 STRESS PERIOD   1
     8 TOTAL ITERATIONS
     1 CALLS TO GCG PACKAGE FOR TRANSPORT TIME STEP 799 IN FLOW TIME STEP   1 STRESS PERIOD   1
     8 TOTAL ITERATIONS
 
 SOLVING FOR HEAD 


     2 CALLS TO PCG ROUTINE FOR TIME STEP   1 IN STRESS PERIOD    1
     8 TOTAL ITERATIONS

 MAXIMUM HEAD CHANGE FOR EACH ITERATION (1 INDICATES THE FIRST INNER ITERATION):

    HEAD CHANGE    HEAD CHANGE    HEAD CHANGE    HEAD CHANGE    HEAD CHANGE 
   LAYER,ROW,COL  LAYER,ROW,COL  LAYER,ROW,COL  LAYER,ROW,COL  LAYER,ROW,COL
 ---------------------------------------------------------------------------
  1 -0.1377E-01  0  0.4149E-02  0  0.4564E-02  0 -0.9367E-02  0 -0.9669E-02
   ( 15,  1, 86)  ( 17,  1, 89)  (  8,  1, 12)  ( 11,  1, 66)  ( 11,  1, 50)
  0  0.2466E-02  0  0.9930E-03  1  0.7781E-03
   ( 11,  1, 53)  ( 11,  1, 70)  ( 11,  1, 53)

 MAXIMUM RESIDUAL FOR EACH ITERATION (1 INDICATES THE FIRST INNER ITERATION):

    RESIDUAL       RESIDUAL       RESIDUAL       RESIDUAL       RESIDUAL    
   LAYER,ROW,COL  LAYER,ROW,COL  LAYER,ROW,COL  LAYER,ROW,COL  LAYER,ROW,COL
 ---------------------------------------------------------------------------
  1 -0.1360E+06  0  0.9691E+05  0  0.9624E+05  0  0.2595E+05  0  -5126.    
   ( 21,  1, 89)  ( 19,  1, 89)  ( 19,  1, 89)  ( 19,  1, 89)  ( 17,  1, 88)
  0  -2829.      0  -2415.      1  -1975.    
   ( 22,  1, 87)  ( 22,  1, 87)  ( 22,  1, 87)


 FLOW MODEL IS TRANSIENT
 FLOW MODEL CONTAINS CONSTANT-HEAD CELLS


 MAXIMUM STEPSIZE DURING WHICH ANY PARTICLE CANNOT MOVE MORE THAN ONE CELL
 =  13.23    (WHEN MIN. R.F.=1)  AT K=  17, I=   1, J=  90

 MAXIMUM STEPSIZE WHICH MEETS STABILITY CRITERION OF THE ADVECTION TERM
 (FOR PURE FINITE-DIFFERENCE OPTION, MIXELM=0) 
 =  8.007    (WHEN MIN. R.F.=1)  AT K=  16, I=   1, J=  90


 TOTAL NUMBER OF POINT SOURCES/SINKS PRESENT IN THE FLOW MODEL =    30

 MAXIMUM STEPSIZE WHICH MEETS STABILITY CRITERION OF THE SINK & SOURCE TERM
 =  12.18    (WHEN MIN. R.F.=1)  AT K=  17, I=   1, J=  91

 MAXIMUM STEPSIZE WHICH MEETS STABILITY CRITERION OF THE DISPERSION TERM
 =  4.375    (WHEN MIN. R.F.=1)  AT K=  17, I=   1, J=  90
     1 CALLS TO GCG PACKAGE FOR TRANSPORT TIME STEP 800 IN FLOW TIME STEP   1 STRESS PERIOD   1
    10 TOTAL ITERATIONS
  MAXIMUM CONCENTRATION CHANGES FOR EACH ITERATION:
  MAX. CHANGE LAYER,ROW,COL MAX. CHANGE LAYER,ROW,COL MAX. CHANGE LAYER,ROW,COL MAX. CHANGE LAYER,ROW,COL MAX. CHANGE LAYER,ROW,COL
 ------------------------------------------------------------------------------------------------------------------------------------
   0.4850E-01 ( 20,  1, 87)  0.3322E-02 ( 19,  1, 87)  0.2157E-02 ( 18,  1, 87)  0.2139E-03 ( 16,  1, 88)  0.1439E-03 ( 17,  1, 89)
   0.2820E-04 ( 16,  1, 90)  0.1101E-05 ( 21,  1, 78)  0.2689E-05 ( 21,  1, 78)  0.1271E-05 ( 16,  1, 89)  0.1167E-06 ( 17,  1, 89)
     1 CALLS TO GCG PACKAGE FOR TRANSPORT TIME STEP 800 IN FLOW TIME STEP   1 STRESS PERIOD   1
     8 TOTAL ITERATIONS
  MAXIMUM CONCENTRATION CHANGES FOR EACH ITERATION:
  MAX. CHANGE LAYER,ROW,COL MAX. CHANGE LAYER,ROW,COL MAX. CHANGE LAYER,ROW,COL MAX. CHANGE LAYER,ROW,COL MAX. CHANGE LAYER,ROW,COL
 ------------------------------------------------------------------------------------------------------------------------------------
   0.5169E-01 ( 20,  1, 87)  0.3440E-02 ( 19,  1, 87)  0.2239E-02 ( 18,  1, 87)  0.2164E-03 ( 16,  1, 88)  0.1316E-03 ( 17,  1, 89)
   0.3263E-04 ( 16,  1, 90)  0.4566E-05 ( 17,  1, 90)  0.5640E-06 ( 16,  1, 89)



 >>>>>>>>>>>>>>>>>>>>>>>>>>>>>>>>>>>>>>>>>>>>>>>>>>>>>>>FOR COMPONENT NO. 01<<<<<<<<<<<<<<<<<<<<<<<<<<<<<<<<<<<<<<<<<<<<<<<<<<<<<<<


                                            -------------------------------------------
                                                      TRANSPORT STEP NO.  800
                                            -------------------------------------------

 TOTAL ELAPSED TIME SINCE BEGINNING OF SIMULATION =   40000.00    D   
 .....................................................................

                     CUMMULATIVE MASS BUDGETS AT END OF TRANSPORT STEP  800, TIME STEP    1, STRESS PERIOD    1
                     ------------------------------------------------------------------------------------------

                                                             IN                           OUT
                                                      ----------------             ----------------
                               CONSTANT CONCENTRATION:    0.000000                    0.000000    
                                        CONSTANT HEAD:   0.1582678E+10              -0.1582465E+10
                                                WELLS:    0.000000                    0.000000    
                                             RECHARGE:    0.000000                    0.000000    
                               1ST/0TH ORDER REACTION:    0.000000                    0.000000    
                                MASS STORAGE (SOLUTE):   0.2212289E+09              -0.2214422E+09
                            ---------------------------------------------------------------------------
                                              [TOTAL]:   0.1803909E+10 KG           -0.1803909E+10 KG  

                                                          NET (IN - OUT):   -285.2935    
                                                   DISCREPANCY (PERCENT):  -0.1581529E-04



 >>>>>>>>>>>>>>>>>>>>>>>>>>>>>>>>>>>>>>>>>>>>>>>>>>>>>>>FOR COMPONENT NO. 02<<<<<<<<<<<<<<<<<<<<<<<<<<<<<<<<<<<<<<<<<<<<<<<<<<<<<<<


                                            -------------------------------------------
                                                      TRANSPORT STEP NO.  800
                                            -------------------------------------------

 TOTAL ELAPSED TIME SINCE BEGINNING OF SIMULATION =   40000.00    D   
 .....................................................................

                     CUMMULATIVE MASS BUDGETS AT END OF TRANSPORT STEP  800, TIME STEP    1, STRESS PERIOD    1
                     ------------------------------------------------------------------------------------------

                                                             IN                           OUT
                                                      ----------------             ----------------
                               CONSTANT CONCENTRATION:    0.000000                    0.000000    
                                        CONSTANT HEAD:    0.000000                  -0.3272085E+12
                                                WELLS:    0.000000                    0.000000    
                                             RECHARGE:    0.000000                    0.000000    
                               1ST/0TH ORDER REACTION:   0.6620000E+12                0.000000    
                                MASS STORAGE (SOLUTE):   0.1234311E+12              -0.4582227E+12
                            ---------------------------------------------------------------------------
                                              [TOTAL]:   0.7854328E+12 KG           -0.7854329E+12 KG  

                                                          NET (IN - OUT):   -107109.4    
                                                   DISCREPANCY (PERCENT):  -0.1363699E-04
 
 SOLVING FOR HEAD 


     2 CALLS TO PCG ROUTINE FOR TIME STEP   1 IN STRESS PERIOD    1
     9 TOTAL ITERATIONS

 MAXIMUM HEAD CHANGE FOR EACH ITERATION (1 INDICATES THE FIRST INNER ITERATION):

    HEAD CHANGE    HEAD CHANGE    HEAD CHANGE    HEAD CHANGE    HEAD CHANGE 
   LAYER,ROW,COL  LAYER,ROW,COL  LAYER,ROW,COL  LAYER,ROW,COL  LAYER,ROW,COL
 ---------------------------------------------------------------------------
  1  0.1366E-01  0  0.6205E-02  0 -0.3416E-02  0 -0.1629E-01  0  0.1327E-01
   ( 15,  1, 86)  ( 11,  1, 53)  (  8,  1, 12)  ( 11,  1, 53)  ( 11,  1, 53)
  0  0.4189E-02  0 -0.1302E-02  0 -0.7370E-03  1  0.5699E-03
   ( 11,  1, 65)  ( 11,  1, 64)  ( 11,  1, 66)  ( 11,  1, 65)

 MAXIMUM RESIDUAL FOR EACH ITERATION (1 INDICATES THE FIRST INNER ITERATION):

    RESIDUAL       RESIDUAL       RESIDUAL       RESIDUAL       RESIDUAL    
   LAYER,ROW,COL  LAYER,ROW,COL  LAYER,ROW,COL  LAYER,ROW,COL  LAYER,ROW,COL
 ---------------------------------------------------------------------------
  1  0.1369E+06  0 -0.9779E+05  0 -0.9684E+05  0 -0.5208E+05  0   6063.    
   ( 21,  1, 89)  ( 19,  1, 89)  ( 19,  1, 89)  ( 19,  1, 89)  ( 17,  1, 88)
  0   3125.      0   2533.      0   1418.      1   1267.    
   ( 17,  1, 88)  ( 22,  1, 87)  ( 22,  1, 87)  ( 22,  1, 87)


 FLOW MODEL IS TRANSIENT
 FLOW MODEL CONTAINS CONSTANT-HEAD CELLS


 MAXIMUM STEPSIZE DURING WHICH ANY PARTICLE CANNOT MOVE MORE THAN ONE CELL
 =  12.87    (WHEN MIN. R.F.=1)  AT K=  17, I=   1, J=  90

 MAXIMUM STEPSIZE WHICH MEETS STABILITY CRITERION OF THE ADVECTION TERM
 (FOR PURE FINITE-DIFFERENCE OPTION, MIXELM=0) 
 =  8.049    (WHEN MIN. R.F.=1)  AT K=  16, I=   1, J=  90


 TOTAL NUMBER OF POINT SOURCES/SINKS PRESENT IN THE FLOW MODEL =    30

 MAXIMUM STEPSIZE WHICH MEETS STABILITY CRITERION OF THE SINK & SOURCE TERM
 =  12.24    (WHEN MIN. R.F.=1)  AT K=  17, I=   1, J=  91

 MAXIMUM STEPSIZE WHICH MEETS STABILITY CRITERION OF THE DISPERSION TERM
 =  4.031    (WHEN MIN. R.F.=1)  AT K=  17, I=   1, J=  90
     1 CALLS TO GCG PACKAGE FOR TRANSPORT TIME STEP 801 IN FLOW TIME STEP   1 STRESS PERIOD   1
     8 TOTAL ITERATIONS
     1 CALLS TO GCG PACKAGE FOR TRANSPORT TIME STEP 801 IN FLOW TIME STEP   1 STRESS PERIOD   1
     8 TOTAL ITERATIONS
 
 SOLVING FOR HEAD 


     2 CALLS TO PCG ROUTINE FOR TIME STEP   1 IN STRESS PERIOD    1
     8 TOTAL ITERATIONS

 MAXIMUM HEAD CHANGE FOR EACH ITERATION (1 INDICATES THE FIRST INNER ITERATION):

    HEAD CHANGE    HEAD CHANGE    HEAD CHANGE    HEAD CHANGE    HEAD CHANGE 
   LAYER,ROW,COL  LAYER,ROW,COL  LAYER,ROW,COL  LAYER,ROW,COL  LAYER,ROW,COL
 ---------------------------------------------------------------------------
  1 -0.1368E-01  0 -0.4722E-02  0  0.5215E-02  0  0.7367E-02  0 -0.7837E-02
   ( 15,  1, 86)  (  7,  1, 12)  (  8,  1, 12)  ( 11,  1, 55)  ( 11,  1, 55)
  0  0.1651E-02  0  0.8616E-03  1  0.5666E-03
   ( 11,  1, 68)  ( 11,  1, 54)  ( 11,  1, 66)

 MAXIMUM RESIDUAL FOR EACH ITERATION (1 INDICATES THE FIRST INNER ITERATION):

    RESIDUAL       RESIDUAL       RESIDUAL       RESIDUAL       RESIDUAL    
   LAYER,ROW,COL  LAYER,ROW,COL  LAYER,ROW,COL  LAYER,ROW,COL  LAYER,ROW,COL
 ---------------------------------------------------------------------------
  1 -0.1349E+06  0  0.9536E+05  0  0.9485E+05  0  0.2635E+05  0   5432.    
   ( 21,  1, 89)  ( 19,  1, 89)  ( 19,  1, 89)  ( 19,  1, 89)  ( 17,  1, 87)
  0  -2830.      0  -2535.      1  -2052.    
   ( 22,  1, 87)  ( 22,  1, 87)  ( 22,  1, 87)


 FLOW MODEL IS TRANSIENT
 FLOW MODEL CONTAINS CONSTANT-HEAD CELLS


 MAXIMUM STEPSIZE DURING WHICH ANY PARTICLE CANNOT MOVE MORE THAN ONE CELL
 =  13.24    (WHEN MIN. R.F.=1)  AT K=  17, I=   1, J=  90

 MAXIMUM STEPSIZE WHICH MEETS STABILITY CRITERION OF THE ADVECTION TERM
 (FOR PURE FINITE-DIFFERENCE OPTION, MIXELM=0) 
 =  8.011    (WHEN MIN. R.F.=1)  AT K=  16, I=   1, J=  90


 TOTAL NUMBER OF POINT SOURCES/SINKS PRESENT IN THE FLOW MODEL =    30

 MAXIMUM STEPSIZE WHICH MEETS STABILITY CRITERION OF THE SINK & SOURCE TERM
 =  12.18    (WHEN MIN. R.F.=1)  AT K=  17, I=   1, J=  91

 MAXIMUM STEPSIZE WHICH MEETS STABILITY CRITERION OF THE DISPERSION TERM
 =  4.385    (WHEN MIN. R.F.=1)  AT K=  17, I=   1, J=  90
     1 CALLS TO GCG PACKAGE FOR TRANSPORT TIME STEP 802 IN FLOW TIME STEP   1 STRESS PERIOD   1
    10 TOTAL ITERATIONS
     1 CALLS TO GCG PACKAGE FOR TRANSPORT TIME STEP 802 IN FLOW TIME STEP   1 STRESS PERIOD   1
     8 TOTAL ITERATIONS
 
 SOLVING FOR HEAD 


     2 CALLS TO PCG ROUTINE FOR TIME STEP   1 IN STRESS PERIOD    1
     9 TOTAL ITERATIONS

 MAXIMUM HEAD CHANGE FOR EACH ITERATION (1 INDICATES THE FIRST INNER ITERATION):

    HEAD CHANGE    HEAD CHANGE    HEAD CHANGE    HEAD CHANGE    HEAD CHANGE 
   LAYER,ROW,COL  LAYER,ROW,COL  LAYER,ROW,COL  LAYER,ROW,COL  LAYER,ROW,COL
 ---------------------------------------------------------------------------
  1  0.1366E-01  0 -0.7903E-02  0 -0.3362E-02  0  0.1042E-01  0  0.6774E-02
   ( 15,  1, 86)  ( 11,  1, 53)  (  7,  1, 12)  ( 11,  1, 52)  ( 11,  1, 67)
  0 -0.3135E-02  0  0.1236E-02  0 -0.7091E-03  1  0.5848E-03
   ( 11,  1, 56)  ( 11,  1, 55)  ( 11,  1, 63)  ( 11,  1, 63)

 MAXIMUM RESIDUAL FOR EACH ITERATION (1 INDICATES THE FIRST INNER ITERATION):

    RESIDUAL       RESIDUAL       RESIDUAL       RESIDUAL       RESIDUAL    
   LAYER,ROW,COL  LAYER,ROW,COL  LAYER,ROW,COL  LAYER,ROW,COL  LAYER,ROW,COL
 ---------------------------------------------------------------------------
  1  0.1372E+06  0 -0.9769E+05  0 -0.9667E+05  0 -0.7823E+05  0   6221.    
   ( 21,  1, 89)  ( 19,  1, 89)  ( 19,  1, 89)  ( 19,  1, 89)  ( 17,  1, 88)
  0   3133.      0   2564.      0   905.3      1   788.6    
   ( 17,  1, 88)  ( 22,  1, 87)  ( 22,  1, 87)  ( 22,  1, 87)


 FLOW MODEL IS TRANSIENT
 FLOW MODEL CONTAINS CONSTANT-HEAD CELLS


 MAXIMUM STEPSIZE DURING WHICH ANY PARTICLE CANNOT MOVE MORE THAN ONE CELL
 =  12.89    (WHEN MIN. R.F.=1)  AT K=  17, I=   1, J=  90

 MAXIMUM STEPSIZE WHICH MEETS STABILITY CRITERION OF THE ADVECTION TERM
 (FOR PURE FINITE-DIFFERENCE OPTION, MIXELM=0) 
 =  8.058    (WHEN MIN. R.F.=1)  AT K=  16, I=   1, J=  90


 TOTAL NUMBER OF POINT SOURCES/SINKS PRESENT IN THE FLOW MODEL =    30

 MAXIMUM STEPSIZE WHICH MEETS STABILITY CRITERION OF THE SINK & SOURCE TERM
 =  12.26    (WHEN MIN. R.F.=1)  AT K=  17, I=   1, J=  91

 MAXIMUM STEPSIZE WHICH MEETS STABILITY CRITERION OF THE DISPERSION TERM
 =  4.039    (WHEN MIN. R.F.=1)  AT K=  17, I=   1, J=  90
     1 CALLS TO GCG PACKAGE FOR TRANSPORT TIME STEP 803 IN FLOW TIME STEP   1 STRESS PERIOD   1
     8 TOTAL ITERATIONS
     1 CALLS TO GCG PACKAGE FOR TRANSPORT TIME STEP 803 IN FLOW TIME STEP   1 STRESS PERIOD   1
     8 TOTAL ITERATIONS
 
 SOLVING FOR HEAD 


     2 CALLS TO PCG ROUTINE FOR TIME STEP   1 IN STRESS PERIOD    1
     8 TOTAL ITERATIONS

 MAXIMUM HEAD CHANGE FOR EACH ITERATION (1 INDICATES THE FIRST INNER ITERATION):

    HEAD CHANGE    HEAD CHANGE    HEAD CHANGE    HEAD CHANGE    HEAD CHANGE 
   LAYER,ROW,COL  LAYER,ROW,COL  LAYER,ROW,COL  LAYER,ROW,COL  LAYER,ROW,COL
 ---------------------------------------------------------------------------
  1 -0.1362E-01  0 -0.4386E-02  0  0.4781E-02  0 -0.1027E-01  0  0.1117E-01
   ( 15,  1, 86)  (  7,  1, 12)  (  8,  1, 12)  ( 11,  1, 49)  ( 11,  1, 49)
  0 -0.2457E-02  0  0.8846E-03  1 -0.6520E-03
   ( 11,  1, 49)  ( 11,  1, 54)  ( 11,  1, 54)

 MAXIMUM RESIDUAL FOR EACH ITERATION (1 INDICATES THE FIRST INNER ITERATION):

    RESIDUAL       RESIDUAL       RESIDUAL       RESIDUAL       RESIDUAL    
   LAYER,ROW,COL  LAYER,ROW,COL  LAYER,ROW,COL  LAYER,ROW,COL  LAYER,ROW,COL
 ---------------------------------------------------------------------------
  1 -0.1362E+06  0  0.9646E+05  0  0.9583E+05  0  0.2066E+05  0  -4774.    
   ( 21,  1, 89)  ( 19,  1, 89)  ( 19,  1, 89)  ( 19,  1, 89)  ( 17,  1, 88)
  0  -2786.      0  -2345.      1  -2007.    
   ( 22,  1, 87)  ( 22,  1, 87)  ( 22,  1, 87)


 FLOW MODEL IS TRANSIENT
 FLOW MODEL CONTAINS CONSTANT-HEAD CELLS


 MAXIMUM STEPSIZE DURING WHICH ANY PARTICLE CANNOT MOVE MORE THAN ONE CELL
 =  13.27    (WHEN MIN. R.F.=1)  AT K=  17, I=   1, J=  90

 MAXIMUM STEPSIZE WHICH MEETS STABILITY CRITERION OF THE ADVECTION TERM
 (FOR PURE FINITE-DIFFERENCE OPTION, MIXELM=0) 
 =  8.020    (WHEN MIN. R.F.=1)  AT K=  16, I=   1, J=  90


 TOTAL NUMBER OF POINT SOURCES/SINKS PRESENT IN THE FLOW MODEL =    30

 MAXIMUM STEPSIZE WHICH MEETS STABILITY CRITERION OF THE SINK & SOURCE TERM
 =  12.20    (WHEN MIN. R.F.=1)  AT K=  17, I=   1, J=  91

 MAXIMUM STEPSIZE WHICH MEETS STABILITY CRITERION OF THE DISPERSION TERM
 =  4.394    (WHEN MIN. R.F.=1)  AT K=  17, I=   1, J=  90
     1 CALLS TO GCG PACKAGE FOR TRANSPORT TIME STEP 804 IN FLOW TIME STEP   1 STRESS PERIOD   1
    10 TOTAL ITERATIONS
     1 CALLS TO GCG PACKAGE FOR TRANSPORT TIME STEP 804 IN FLOW TIME STEP   1 STRESS PERIOD   1
     8 TOTAL ITERATIONS
 
 SOLVING FOR HEAD 


     2 CALLS TO PCG ROUTINE FOR TIME STEP   1 IN STRESS PERIOD    1
     8 TOTAL ITERATIONS

 MAXIMUM HEAD CHANGE FOR EACH ITERATION (1 INDICATES THE FIRST INNER ITERATION):

    HEAD CHANGE    HEAD CHANGE    HEAD CHANGE    HEAD CHANGE    HEAD CHANGE 
   LAYER,ROW,COL  LAYER,ROW,COL  LAYER,ROW,COL  LAYER,ROW,COL  LAYER,ROW,COL
 ---------------------------------------------------------------------------
  1  0.1364E-01  0 -0.6165E-02  0 -0.3189E-02  0  0.1472E-01  0 -0.1201E-01
   ( 15,  1, 86)  ( 11,  1, 54)  (  8,  1, 12)  ( 11,  1, 53)  ( 11,  1, 53)
  0 -0.2834E-02  0  0.8757E-03  1 -0.5196E-03
   ( 11,  1, 69)  (  9,  1, 47)  (  8,  1, 43)

 MAXIMUM RESIDUAL FOR EACH ITERATION (1 INDICATES THE FIRST INNER ITERATION):

    RESIDUAL       RESIDUAL       RESIDUAL       RESIDUAL       RESIDUAL    
   LAYER,ROW,COL  LAYER,ROW,COL  LAYER,ROW,COL  LAYER,ROW,COL  LAYER,ROW,COL
 ---------------------------------------------------------------------------
  1  0.1372E+06  0 -0.9753E+05  0 -0.9651E+05  0 -0.6149E+05  0  -5737.    
   ( 21,  1, 89)  ( 19,  1, 89)  ( 19,  1, 89)  ( 19,  1, 89)  ( 17,  1, 87)
  0   2886.      0   2597.      1   1800.    
   ( 17,  1, 88)  ( 22,  1, 87)  ( 22,  1, 87)


 FLOW MODEL IS TRANSIENT
 FLOW MODEL CONTAINS CONSTANT-HEAD CELLS


 MAXIMUM STEPSIZE DURING WHICH ANY PARTICLE CANNOT MOVE MORE THAN ONE CELL
 =  12.89    (WHEN MIN. R.F.=1)  AT K=  17, I=   1, J=  90

 MAXIMUM STEPSIZE WHICH MEETS STABILITY CRITERION OF THE ADVECTION TERM
 (FOR PURE FINITE-DIFFERENCE OPTION, MIXELM=0) 
 =  8.057    (WHEN MIN. R.F.=1)  AT K=  16, I=   1, J=  90


 TOTAL NUMBER OF POINT SOURCES/SINKS PRESENT IN THE FLOW MODEL =    30

 MAXIMUM STEPSIZE WHICH MEETS STABILITY CRITERION OF THE SINK & SOURCE TERM
 =  12.27    (WHEN MIN. R.F.=1)  AT K=  17, I=   1, J=  91

 MAXIMUM STEPSIZE WHICH MEETS STABILITY CRITERION OF THE DISPERSION TERM
 =  4.042    (WHEN MIN. R.F.=1)  AT K=  17, I=   1, J=  90
     1 CALLS TO GCG PACKAGE FOR TRANSPORT TIME STEP 805 IN FLOW TIME STEP   1 STRESS PERIOD   1
     8 TOTAL ITERATIONS
  MAXIMUM CONCENTRATION CHANGES FOR EACH ITERATION:
  MAX. CHANGE LAYER,ROW,COL MAX. CHANGE LAYER,ROW,COL MAX. CHANGE LAYER,ROW,COL MAX. CHANGE LAYER,ROW,COL MAX. CHANGE LAYER,ROW,COL
 ------------------------------------------------------------------------------------------------------------------------------------
   0.5151E-01 ( 20,  1, 87)  0.4271E-02 ( 19,  1, 89)  0.2082E-02 ( 17,  1, 86)  0.5208E-03 ( 20,  1, 89)  0.9671E-04 ( 16,  1, 89)
   0.2134E-04 ( 20,  1, 89)  0.2362E-04 ( 16,  1, 90)  0.6012E-06 ( 17,  1, 90)
     1 CALLS TO GCG PACKAGE FOR TRANSPORT TIME STEP 805 IN FLOW TIME STEP   1 STRESS PERIOD   1
     8 TOTAL ITERATIONS
  MAXIMUM CONCENTRATION CHANGES FOR EACH ITERATION:
  MAX. CHANGE LAYER,ROW,COL MAX. CHANGE LAYER,ROW,COL MAX. CHANGE LAYER,ROW,COL MAX. CHANGE LAYER,ROW,COL MAX. CHANGE LAYER,ROW,COL
 ------------------------------------------------------------------------------------------------------------------------------------
   0.5545E-01 ( 20,  1, 87)  0.4653E-02 ( 19,  1, 89)  0.2036E-02 ( 18,  1, 86)  0.4626E-03 ( 20,  1, 89)  0.1003E-03 ( 16,  1, 89)
   0.1661E-04 ( 23,  1, 87)  0.1891E-04 ( 16,  1, 90)  0.8011E-06 ( 17,  1, 90)
 
 SOLVING FOR HEAD 


     2 CALLS TO PCG ROUTINE FOR TIME STEP   1 IN STRESS PERIOD    1
    10 TOTAL ITERATIONS

 MAXIMUM HEAD CHANGE FOR EACH ITERATION (1 INDICATES THE FIRST INNER ITERATION):

    HEAD CHANGE    HEAD CHANGE    HEAD CHANGE    HEAD CHANGE    HEAD CHANGE 
   LAYER,ROW,COL  LAYER,ROW,COL  LAYER,ROW,COL  LAYER,ROW,COL  LAYER,ROW,COL
 ---------------------------------------------------------------------------
  1 -0.1383E-01  0 -0.1145E-01  0  0.7690E-02  0  0.9942E-02  0 -0.5956E-02
   ( 15,  1, 86)  (  6,  1, 41)  (  8,  1, 12)  (  9,  1, 44)  (  6,  1, 46)
  0  0.4797E-02  0  0.1701E-02  0  0.1063E-02  0  0.6344E-03  1 -0.2742E-03
   ( 11,  1, 68)  ( 11,  1, 51)  ( 11,  1, 64)  ( 11,  1, 57)  ( 11,  1, 55)

 MAXIMUM RESIDUAL FOR EACH ITERATION (1 INDICATES THE FIRST INNER ITERATION):

    RESIDUAL       RESIDUAL       RESIDUAL       RESIDUAL       RESIDUAL    
   LAYER,ROW,COL  LAYER,ROW,COL  LAYER,ROW,COL  LAYER,ROW,COL  LAYER,ROW,COL
 ---------------------------------------------------------------------------
  1 -0.1400E+06  0  0.9913E+05  0  0.9916E+05  0  0.8421E+05  0  -6678.    
   ( 21,  1, 89)  ( 19,  1, 89)  ( 19,  1, 89)  ( 19,  1, 89)  ( 17,  1, 88)
  0  -3335.      0  -2566.      0  -1657.      0  -403.9      1   358.0    
   ( 17,  1, 88)  ( 22,  1, 87)  ( 22,  1, 87)  ( 22,  1, 87)  ( 18,  1, 90)


 FLOW MODEL IS TRANSIENT
 FLOW MODEL CONTAINS CONSTANT-HEAD CELLS


 MAXIMUM STEPSIZE DURING WHICH ANY PARTICLE CANNOT MOVE MORE THAN ONE CELL
 =  13.21    (WHEN MIN. R.F.=1)  AT K=  17, I=   1, J=  90

 MAXIMUM STEPSIZE WHICH MEETS STABILITY CRITERION OF THE ADVECTION TERM
 (FOR PURE FINITE-DIFFERENCE OPTION, MIXELM=0) 
 =  7.996    (WHEN MIN. R.F.=1)  AT K=  16, I=   1, J=  90


 TOTAL NUMBER OF POINT SOURCES/SINKS PRESENT IN THE FLOW MODEL =    30

 MAXIMUM STEPSIZE WHICH MEETS STABILITY CRITERION OF THE SINK & SOURCE TERM
 =  12.15    (WHEN MIN. R.F.=1)  AT K=  17, I=   1, J=  91

 MAXIMUM STEPSIZE WHICH MEETS STABILITY CRITERION OF THE DISPERSION TERM
 =  4.374    (WHEN MIN. R.F.=1)  AT K=  17, I=   1, J=  90
     1 CALLS TO GCG PACKAGE FOR TRANSPORT TIME STEP 806 IN FLOW TIME STEP   1 STRESS PERIOD   1
     9 TOTAL ITERATIONS
     1 CALLS TO GCG PACKAGE FOR TRANSPORT TIME STEP 806 IN FLOW TIME STEP   1 STRESS PERIOD   1
     8 TOTAL ITERATIONS
 
 SOLVING FOR HEAD 


     2 CALLS TO PCG ROUTINE FOR TIME STEP   1 IN STRESS PERIOD    1
     9 TOTAL ITERATIONS

 MAXIMUM HEAD CHANGE FOR EACH ITERATION (1 INDICATES THE FIRST INNER ITERATION):

    HEAD CHANGE    HEAD CHANGE    HEAD CHANGE    HEAD CHANGE    HEAD CHANGE 
   LAYER,ROW,COL  LAYER,ROW,COL  LAYER,ROW,COL  LAYER,ROW,COL  LAYER,ROW,COL
 ---------------------------------------------------------------------------
  1  0.1333E-01  0 -0.3916E-02  0  0.6632E-02  0  0.2791E-02  0 -0.8484E-02
   ( 15,  1, 86)  ( 17,  1, 89)  ( 11,  1, 55)  (  8,  1, 12)  ( 11,  1, 55)
  0  0.3294E-02  0 -0.1045E-02  0 -0.8425E-03  1  0.8120E-03
   ( 11,  1, 55)  ( 11,  1, 49)  ( 11,  1, 70)  ( 11,  1, 68)

 MAXIMUM RESIDUAL FOR EACH ITERATION (1 INDICATES THE FIRST INNER ITERATION):

    RESIDUAL       RESIDUAL       RESIDUAL       RESIDUAL       RESIDUAL    
   LAYER,ROW,COL  LAYER,ROW,COL  LAYER,ROW,COL  LAYER,ROW,COL  LAYER,ROW,COL
 ---------------------------------------------------------------------------
  1  0.1369E+06  0 -0.9722E+05  0 -0.2067E+05  0 -0.1511E+05  0   4307.    
   ( 21,  1, 89)  ( 19,  1, 89)  ( 19,  1, 89)  ( 19,  1, 89)  ( 17,  1, 88)
  0   2779.      0   2145.      0   732.8      1   610.5    
   ( 22,  1, 87)  ( 22,  1, 87)  ( 22,  1, 87)  ( 22,  1, 87)


 FLOW MODEL IS TRANSIENT
 FLOW MODEL CONTAINS CONSTANT-HEAD CELLS


 MAXIMUM STEPSIZE DURING WHICH ANY PARTICLE CANNOT MOVE MORE THAN ONE CELL
 =  12.83    (WHEN MIN. R.F.=1)  AT K=  17, I=   1, J=  90

 MAXIMUM STEPSIZE WHICH MEETS STABILITY CRITERION OF THE ADVECTION TERM
 (FOR PURE FINITE-DIFFERENCE OPTION, MIXELM=0) 
 =  8.027    (WHEN MIN. R.F.=1)  AT K=  16, I=   1, J=  90


 TOTAL NUMBER OF POINT SOURCES/SINKS PRESENT IN THE FLOW MODEL =    30

 MAXIMUM STEPSIZE WHICH MEETS STABILITY CRITERION OF THE SINK & SOURCE TERM
 =  12.18    (WHEN MIN. R.F.=1)  AT K=  17, I=   1, J=  91

 MAXIMUM STEPSIZE WHICH MEETS STABILITY CRITERION OF THE DISPERSION TERM
 =  4.016    (WHEN MIN. R.F.=1)  AT K=  17, I=   1, J=  90
     1 CALLS TO GCG PACKAGE FOR TRANSPORT TIME STEP 807 IN FLOW TIME STEP   1 STRESS PERIOD   1
     8 TOTAL ITERATIONS
     1 CALLS TO GCG PACKAGE FOR TRANSPORT TIME STEP 807 IN FLOW TIME STEP   1 STRESS PERIOD   1
     8 TOTAL ITERATIONS
 
 SOLVING FOR HEAD 


     2 CALLS TO PCG ROUTINE FOR TIME STEP   1 IN STRESS PERIOD    1
     9 TOTAL ITERATIONS

 MAXIMUM HEAD CHANGE FOR EACH ITERATION (1 INDICATES THE FIRST INNER ITERATION):

    HEAD CHANGE    HEAD CHANGE    HEAD CHANGE    HEAD CHANGE    HEAD CHANGE 
   LAYER,ROW,COL  LAYER,ROW,COL  LAYER,ROW,COL  LAYER,ROW,COL  LAYER,ROW,COL
 ---------------------------------------------------------------------------
  1 -0.1332E-01  0  0.3666E-02  0  0.3382E-02  0  0.1102E-01  0 -0.1072E-01
   ( 15,  1, 86)  ( 17,  1, 89)  (  8,  1, 12)  ( 11,  1, 49)  ( 11,  1, 49)
  0 -0.1508E-02  0  0.1011E-02  0  0.9094E-03  1 -0.7733E-03
   (  7,  1, 43)  ( 11,  1, 49)  ( 11,  1, 70)  ( 11,  1, 70)

 MAXIMUM RESIDUAL FOR EACH ITERATION (1 INDICATES THE FIRST INNER ITERATION):

    RESIDUAL       RESIDUAL       RESIDUAL       RESIDUAL       RESIDUAL    
   LAYER,ROW,COL  LAYER,ROW,COL  LAYER,ROW,COL  LAYER,ROW,COL  LAYER,ROW,COL
 ---------------------------------------------------------------------------
  1 -0.1326E+06  0  0.9293E+05  0  0.9205E+05  0  0.3027E+05  0   5977.    
   ( 21,  1, 89)  ( 19,  1, 89)  ( 19,  1, 89)  ( 19,  1, 89)  ( 17,  1, 87)
  0  -2804.      0  -2511.      0  -879.3      1  -758.6    
   ( 22,  1, 87)  ( 22,  1, 87)  ( 22,  1, 87)  ( 22,  1, 87)


 FLOW MODEL IS TRANSIENT
 FLOW MODEL CONTAINS CONSTANT-HEAD CELLS


 MAXIMUM STEPSIZE DURING WHICH ANY PARTICLE CANNOT MOVE MORE THAN ONE CELL
 =  13.21    (WHEN MIN. R.F.=1)  AT K=  17, I=   1, J=  90

 MAXIMUM STEPSIZE WHICH MEETS STABILITY CRITERION OF THE ADVECTION TERM
 (FOR PURE FINITE-DIFFERENCE OPTION, MIXELM=0) 
 =  8.003    (WHEN MIN. R.F.=1)  AT K=  16, I=   1, J=  90


 TOTAL NUMBER OF POINT SOURCES/SINKS PRESENT IN THE FLOW MODEL =    30

 MAXIMUM STEPSIZE WHICH MEETS STABILITY CRITERION OF THE SINK & SOURCE TERM
 =  12.17    (WHEN MIN. R.F.=1)  AT K=  17, I=   1, J=  91

 MAXIMUM STEPSIZE WHICH MEETS STABILITY CRITERION OF THE DISPERSION TERM
 =  4.367    (WHEN MIN. R.F.=1)  AT K=  17, I=   1, J=  90
     1 CALLS TO GCG PACKAGE FOR TRANSPORT TIME STEP 808 IN FLOW TIME STEP   1 STRESS PERIOD   1
     7 TOTAL ITERATIONS
     1 CALLS TO GCG PACKAGE FOR TRANSPORT TIME STEP 808 IN FLOW TIME STEP   1 STRESS PERIOD   1
     8 TOTAL ITERATIONS
 
 SOLVING FOR HEAD 


     2 CALLS TO PCG ROUTINE FOR TIME STEP   1 IN STRESS PERIOD    1
     8 TOTAL ITERATIONS

 MAXIMUM HEAD CHANGE FOR EACH ITERATION (1 INDICATES THE FIRST INNER ITERATION):

    HEAD CHANGE    HEAD CHANGE    HEAD CHANGE    HEAD CHANGE    HEAD CHANGE 
   LAYER,ROW,COL  LAYER,ROW,COL  LAYER,ROW,COL  LAYER,ROW,COL  LAYER,ROW,COL
 ---------------------------------------------------------------------------
  1  0.1347E-01  0 -0.3721E-02  0 -0.2330E-02  0 -0.1077E-01  0  0.1106E-01
   ( 15,  1, 86)  ( 17,  1, 89)  (  7,  1, 12)  ( 11,  1, 55)  ( 11,  1, 55)
  0  0.1552E-02  0  0.7826E-03  1 -0.6189E-03
   ( 11,  1, 37)  ( 11,  1, 62)  ( 11,  1, 63)

 MAXIMUM RESIDUAL FOR EACH ITERATION (1 INDICATES THE FIRST INNER ITERATION):

    RESIDUAL       RESIDUAL       RESIDUAL       RESIDUAL       RESIDUAL    
   LAYER,ROW,COL  LAYER,ROW,COL  LAYER,ROW,COL  LAYER,ROW,COL  LAYER,ROW,COL
 ---------------------------------------------------------------------------
  1  0.1308E+06  0 -0.9114E+05  0 -0.8901E+05  0 -0.2736E+05  0  -5435.    
   ( 21,  1, 89)  ( 19,  1, 89)  ( 19,  1, 89)  ( 19,  1, 89)  ( 17,  1, 87)
  0   2887.      0   2582.      1   2102.    
   ( 22,  1, 87)  ( 22,  1, 87)  ( 22,  1, 87)


 FLOW MODEL IS TRANSIENT
 FLOW MODEL CONTAINS CONSTANT-HEAD CELLS


 MAXIMUM STEPSIZE DURING WHICH ANY PARTICLE CANNOT MOVE MORE THAN ONE CELL
 =  12.85    (WHEN MIN. R.F.=1)  AT K=  17, I=   1, J=  90

 MAXIMUM STEPSIZE WHICH MEETS STABILITY CRITERION OF THE ADVECTION TERM
 (FOR PURE FINITE-DIFFERENCE OPTION, MIXELM=0) 
 =  8.030    (WHEN MIN. R.F.=1)  AT K=  16, I=   1, J=  90


 TOTAL NUMBER OF POINT SOURCES/SINKS PRESENT IN THE FLOW MODEL =    30

 MAXIMUM STEPSIZE WHICH MEETS STABILITY CRITERION OF THE SINK & SOURCE TERM
 =  12.20    (WHEN MIN. R.F.=1)  AT K=  17, I=   1, J=  91

 MAXIMUM STEPSIZE WHICH MEETS STABILITY CRITERION OF THE DISPERSION TERM
 =  4.032    (WHEN MIN. R.F.=1)  AT K=  17, I=   1, J=  90
     1 CALLS TO GCG PACKAGE FOR TRANSPORT TIME STEP 809 IN FLOW TIME STEP   1 STRESS PERIOD   1
     8 TOTAL ITERATIONS
     1 CALLS TO GCG PACKAGE FOR TRANSPORT TIME STEP 809 IN FLOW TIME STEP   1 STRESS PERIOD   1
     8 TOTAL ITERATIONS
 
 SOLVING FOR HEAD 


     2 CALLS TO PCG ROUTINE FOR TIME STEP   1 IN STRESS PERIOD    1
     9 TOTAL ITERATIONS

 MAXIMUM HEAD CHANGE FOR EACH ITERATION (1 INDICATES THE FIRST INNER ITERATION):

    HEAD CHANGE    HEAD CHANGE    HEAD CHANGE    HEAD CHANGE    HEAD CHANGE 
   LAYER,ROW,COL  LAYER,ROW,COL  LAYER,ROW,COL  LAYER,ROW,COL  LAYER,ROW,COL
 ---------------------------------------------------------------------------
  1 -0.1369E-01  0 -0.6873E-02  0  0.4095E-02  0  0.8780E-02  0 -0.6263E-02
   ( 15,  1, 86)  (  9,  1, 56)  (  7,  1, 12)  (  9,  1, 56)  (  9,  1, 53)
  0  0.3423E-02  0 -0.1423E-02  0  0.7576E-03  1 -0.6157E-03
   ( 11,  1, 55)  ( 11,  1, 55)  ( 11,  1, 50)  ( 11,  1, 50)

 MAXIMUM RESIDUAL FOR EACH ITERATION (1 INDICATES THE FIRST INNER ITERATION):

    RESIDUAL       RESIDUAL       RESIDUAL       RESIDUAL       RESIDUAL    
   LAYER,ROW,COL  LAYER,ROW,COL  LAYER,ROW,COL  LAYER,ROW,COL  LAYER,ROW,COL
 ---------------------------------------------------------------------------
  1 -0.1363E+06  0  0.9709E+05  0  0.9630E+05  0  0.7813E+05  0   6260.    
   ( 21,  1, 89)  ( 19,  1, 89)  ( 19,  1, 89)  ( 19,  1, 89)  ( 17,  1, 87)
  0  -2853.      0  -2570.      0  -1378.      1  -1228.    
   ( 17,  1, 88)  ( 22,  1, 87)  ( 22,  1, 87)  ( 22,  1, 87)


 FLOW MODEL IS TRANSIENT
 FLOW MODEL CONTAINS CONSTANT-HEAD CELLS


 MAXIMUM STEPSIZE DURING WHICH ANY PARTICLE CANNOT MOVE MORE THAN ONE CELL
 =  13.15    (WHEN MIN. R.F.=1)  AT K=  17, I=   1, J=  90

 MAXIMUM STEPSIZE WHICH MEETS STABILITY CRITERION OF THE ADVECTION TERM
 (FOR PURE FINITE-DIFFERENCE OPTION, MIXELM=0) 
 =  7.975    (WHEN MIN. R.F.=1)  AT K=  16, I=   1, J=  90


 TOTAL NUMBER OF POINT SOURCES/SINKS PRESENT IN THE FLOW MODEL =    30

 MAXIMUM STEPSIZE WHICH MEETS STABILITY CRITERION OF THE SINK & SOURCE TERM
 =  12.09    (WHEN MIN. R.F.=1)  AT K=  17, I=   1, J=  91

 MAXIMUM STEPSIZE WHICH MEETS STABILITY CRITERION OF THE DISPERSION TERM
 =  4.337    (WHEN MIN. R.F.=1)  AT K=  17, I=   1, J=  90
     1 CALLS TO GCG PACKAGE FOR TRANSPORT TIME STEP 810 IN FLOW TIME STEP   1 STRESS PERIOD   1
    10 TOTAL ITERATIONS
  MAXIMUM CONCENTRATION CHANGES FOR EACH ITERATION:
  MAX. CHANGE LAYER,ROW,COL MAX. CHANGE LAYER,ROW,COL MAX. CHANGE LAYER,ROW,COL MAX. CHANGE LAYER,ROW,COL MAX. CHANGE LAYER,ROW,COL
 ------------------------------------------------------------------------------------------------------------------------------------
   0.4880E-01 ( 20,  1, 87)  0.3307E-02 ( 19,  1, 87)  0.2133E-02 ( 18,  1, 87)  0.2125E-03 ( 16,  1, 88)  0.1433E-03 ( 16,  1, 89)
   0.2746E-04 ( 16,  1, 90)  0.3348E-05 ( 21,  1, 78)  0.1028E-05 ( 15,  1, 89)  0.1306E-05 ( 16,  1, 89)  0.1143E-06 ( 17,  1, 89)
     1 CALLS TO GCG PACKAGE FOR TRANSPORT TIME STEP 810 IN FLOW TIME STEP   1 STRESS PERIOD   1
     8 TOTAL ITERATIONS
  MAXIMUM CONCENTRATION CHANGES FOR EACH ITERATION:
  MAX. CHANGE LAYER,ROW,COL MAX. CHANGE LAYER,ROW,COL MAX. CHANGE LAYER,ROW,COL MAX. CHANGE LAYER,ROW,COL MAX. CHANGE LAYER,ROW,COL
 ------------------------------------------------------------------------------------------------------------------------------------
   0.5172E-01 ( 20,  1, 87)  0.3396E-02 ( 19,  1, 87)  0.2201E-02 ( 18,  1, 87)  0.2130E-03 ( 16,  1, 88)  0.1307E-03 ( 17,  1, 89)
   0.3111E-04 ( 16,  1, 90)  0.4462E-05 ( 17,  1, 90)  0.5565E-06 ( 16,  1, 89)



 >>>>>>>>>>>>>>>>>>>>>>>>>>>>>>>>>>>>>>>>>>>>>>>>>>>>>>>FOR COMPONENT NO. 01<<<<<<<<<<<<<<<<<<<<<<<<<<<<<<<<<<<<<<<<<<<<<<<<<<<<<<<


                                            -------------------------------------------
                                                      TRANSPORT STEP NO.  810
                                            -------------------------------------------

 TOTAL ELAPSED TIME SINCE BEGINNING OF SIMULATION =   40500.00    D   
 .....................................................................

                     CUMMULATIVE MASS BUDGETS AT END OF TRANSPORT STEP  810, TIME STEP    1, STRESS PERIOD    1
                     ------------------------------------------------------------------------------------------

                                                             IN                           OUT
                                                      ----------------             ----------------
                               CONSTANT CONCENTRATION:    0.000000                    0.000000    
                                        CONSTANT HEAD:   0.1602445E+10              -0.1602234E+10
                                                WELLS:    0.000000                    0.000000    
                                             RECHARGE:    0.000000                    0.000000    
                               1ST/0TH ORDER REACTION:    0.000000                    0.000000    
                                MASS STORAGE (SOLUTE):   0.2240011E+09              -0.2242128E+09
                            ---------------------------------------------------------------------------
                                              [TOTAL]:   0.1826448E+10 KG           -0.1826448E+10 KG  

                                                          NET (IN - OUT):   -290.1758    
                                                   DISCREPANCY (PERCENT):  -0.1588744E-04



 >>>>>>>>>>>>>>>>>>>>>>>>>>>>>>>>>>>>>>>>>>>>>>>>>>>>>>>FOR COMPONENT NO. 02<<<<<<<<<<<<<<<<<<<<<<<<<<<<<<<<<<<<<<<<<<<<<<<<<<<<<<<


                                            -------------------------------------------
                                                      TRANSPORT STEP NO.  810
                                            -------------------------------------------

 TOTAL ELAPSED TIME SINCE BEGINNING OF SIMULATION =   40500.00    D   
 .....................................................................

                     CUMMULATIVE MASS BUDGETS AT END OF TRANSPORT STEP  810, TIME STEP    1, STRESS PERIOD    1
                     ------------------------------------------------------------------------------------------

                                                             IN                           OUT
                                                      ----------------             ----------------
                               CONSTANT CONCENTRATION:    0.000000                    0.000000    
                                        CONSTANT HEAD:    0.000000                  -0.3338721E+12
                                                WELLS:    0.000000                    0.000000    
                                             RECHARGE:    0.000000                    0.000000    
                               1ST/0TH ORDER REACTION:   0.6702750E+12                0.000000    
                                MASS STORAGE (SOLUTE):   0.1264821E+12              -0.4628851E+12
                            ---------------------------------------------------------------------------
                                              [TOTAL]:   0.7967588E+12 KG           -0.7967589E+12 KG  

                                                          NET (IN - OUT):   -109466.4    
                                                   DISCREPANCY (PERCENT):  -0.1373897E-04
 
 SOLVING FOR HEAD 


     2 CALLS TO PCG ROUTINE FOR TIME STEP   1 IN STRESS PERIOD    1
     9 TOTAL ITERATIONS

 MAXIMUM HEAD CHANGE FOR EACH ITERATION (1 INDICATES THE FIRST INNER ITERATION):

    HEAD CHANGE    HEAD CHANGE    HEAD CHANGE    HEAD CHANGE    HEAD CHANGE 
   LAYER,ROW,COL  LAYER,ROW,COL  LAYER,ROW,COL  LAYER,ROW,COL  LAYER,ROW,COL
 ---------------------------------------------------------------------------
  1  0.1376E-01  0 -0.4129E-02  0 -0.3623E-02  0  0.9259E-02  0 -0.9617E-02
   ( 15,  1, 86)  ( 17,  1, 89)  (  8,  1, 12)  ( 11,  1, 51)  ( 11,  1, 51)
  0  0.1754E-02  0 -0.1096E-02  0 -0.6490E-03  1  0.4174E-03
   ( 11,  1, 53)  ( 11,  1, 70)  ( 11,  1, 63)  ( 11,  1, 70)

 MAXIMUM RESIDUAL FOR EACH ITERATION (1 INDICATES THE FIRST INNER ITERATION):

    RESIDUAL       RESIDUAL       RESIDUAL       RESIDUAL       RESIDUAL    
   LAYER,ROW,COL  LAYER,ROW,COL  LAYER,ROW,COL  LAYER,ROW,COL  LAYER,ROW,COL
 ---------------------------------------------------------------------------
  1  0.1343E+06  0 -0.9555E+05  0 -0.9471E+05  0 -0.2244E+05  0   5120.    
   ( 21,  1, 89)  ( 19,  1, 89)  ( 19,  1, 89)  ( 19,  1, 89)  ( 17,  1, 88)
  0   2777.      0   2154.      0   660.8      1   557.9    
   ( 22,  1, 87)  ( 22,  1, 87)  ( 22,  1, 87)  ( 22,  1, 87)


 FLOW MODEL IS TRANSIENT
 FLOW MODEL CONTAINS CONSTANT-HEAD CELLS


 MAXIMUM STEPSIZE DURING WHICH ANY PARTICLE CANNOT MOVE MORE THAN ONE CELL
 =  12.84    (WHEN MIN. R.F.=1)  AT K=  17, I=   1, J=  90

 MAXIMUM STEPSIZE WHICH MEETS STABILITY CRITERION OF THE ADVECTION TERM
 (FOR PURE FINITE-DIFFERENCE OPTION, MIXELM=0) 
 =  8.031    (WHEN MIN. R.F.=1)  AT K=  16, I=   1, J=  90


 TOTAL NUMBER OF POINT SOURCES/SINKS PRESENT IN THE FLOW MODEL =    30

 MAXIMUM STEPSIZE WHICH MEETS STABILITY CRITERION OF THE SINK & SOURCE TERM
 =  12.18    (WHEN MIN. R.F.=1)  AT K=  17, I=   1, J=  91

 MAXIMUM STEPSIZE WHICH MEETS STABILITY CRITERION OF THE DISPERSION TERM
 =  4.023    (WHEN MIN. R.F.=1)  AT K=  17, I=   1, J=  90
     1 CALLS TO GCG PACKAGE FOR TRANSPORT TIME STEP 811 IN FLOW TIME STEP   1 STRESS PERIOD   1
     8 TOTAL ITERATIONS
     1 CALLS TO GCG PACKAGE FOR TRANSPORT TIME STEP 811 IN FLOW TIME STEP   1 STRESS PERIOD   1
     8 TOTAL ITERATIONS
 
 SOLVING FOR HEAD 


     2 CALLS TO PCG ROUTINE FOR TIME STEP   1 IN STRESS PERIOD    1
     8 TOTAL ITERATIONS

 MAXIMUM HEAD CHANGE FOR EACH ITERATION (1 INDICATES THE FIRST INNER ITERATION):

    HEAD CHANGE    HEAD CHANGE    HEAD CHANGE    HEAD CHANGE    HEAD CHANGE 
   LAYER,ROW,COL  LAYER,ROW,COL  LAYER,ROW,COL  LAYER,ROW,COL  LAYER,ROW,COL
 ---------------------------------------------------------------------------
  1 -0.1332E-01  0  0.3713E-02  0  0.2427E-02  0  0.8106E-02  0 -0.8406E-02
   ( 15,  1, 86)  ( 17,  1, 89)  (  7,  1, 12)  (  8,  1, 51)  (  9,  1, 51)
  0 -0.1610E-02  0  0.9822E-03  1  0.7793E-03
   ( 11,  1, 38)  ( 11,  1, 55)  ( 11,  1, 62)

 MAXIMUM RESIDUAL FOR EACH ITERATION (1 INDICATES THE FIRST INNER ITERATION):

    RESIDUAL       RESIDUAL       RESIDUAL       RESIDUAL       RESIDUAL    
   LAYER,ROW,COL  LAYER,ROW,COL  LAYER,ROW,COL  LAYER,ROW,COL  LAYER,ROW,COL
 ---------------------------------------------------------------------------
  1 -0.1305E+06  0  0.9177E+05  0  0.9049E+05  0  0.3081E+05  0   6069.    
   ( 21,  1, 89)  ( 19,  1, 89)  ( 19,  1, 89)  ( 19,  1, 89)  ( 17,  1, 87)
  0  -2857.      0  -2515.      1  -1996.    
   ( 22,  1, 87)  ( 22,  1, 87)  ( 22,  1, 87)


 FLOW MODEL IS TRANSIENT
 FLOW MODEL CONTAINS CONSTANT-HEAD CELLS


 MAXIMUM STEPSIZE DURING WHICH ANY PARTICLE CANNOT MOVE MORE THAN ONE CELL
 =  13.24    (WHEN MIN. R.F.=1)  AT K=  17, I=   1, J=  90

 MAXIMUM STEPSIZE WHICH MEETS STABILITY CRITERION OF THE ADVECTION TERM
 (FOR PURE FINITE-DIFFERENCE OPTION, MIXELM=0) 
 =  8.012    (WHEN MIN. R.F.=1)  AT K=  16, I=   1, J=  90


 TOTAL NUMBER OF POINT SOURCES/SINKS PRESENT IN THE FLOW MODEL =    30

 MAXIMUM STEPSIZE WHICH MEETS STABILITY CRITERION OF THE SINK & SOURCE TERM
 =  12.18    (WHEN MIN. R.F.=1)  AT K=  17, I=   1, J=  91

 MAXIMUM STEPSIZE WHICH MEETS STABILITY CRITERION OF THE DISPERSION TERM
 =  4.377    (WHEN MIN. R.F.=1)  AT K=  17, I=   1, J=  90
     1 CALLS TO GCG PACKAGE FOR TRANSPORT TIME STEP 812 IN FLOW TIME STEP   1 STRESS PERIOD   1
    10 TOTAL ITERATIONS
     1 CALLS TO GCG PACKAGE FOR TRANSPORT TIME STEP 812 IN FLOW TIME STEP   1 STRESS PERIOD   1
     8 TOTAL ITERATIONS
 
 SOLVING FOR HEAD 


     2 CALLS TO PCG ROUTINE FOR TIME STEP   1 IN STRESS PERIOD    1
     9 TOTAL ITERATIONS

 MAXIMUM HEAD CHANGE FOR EACH ITERATION (1 INDICATES THE FIRST INNER ITERATION):

    HEAD CHANGE    HEAD CHANGE    HEAD CHANGE    HEAD CHANGE    HEAD CHANGE 
   LAYER,ROW,COL  LAYER,ROW,COL  LAYER,ROW,COL  LAYER,ROW,COL  LAYER,ROW,COL
 ---------------------------------------------------------------------------
  1  0.1367E-01  0 -0.7068E-02  0 -0.3662E-02  0  0.1395E-01  0  0.1122E-01
   ( 15,  1, 86)  ( 11,  1, 55)  (  8,  1, 12)  ( 11,  1, 55)  ( 11,  1, 63)
  0 -0.3513E-02  0 -0.1140E-02  0 -0.6693E-03  1  0.5099E-03
   ( 11,  1, 68)  ( 11,  1, 49)  ( 11,  1, 53)  ( 11,  1, 53)

 MAXIMUM RESIDUAL FOR EACH ITERATION (1 INDICATES THE FIRST INNER ITERATION):

    RESIDUAL       RESIDUAL       RESIDUAL       RESIDUAL       RESIDUAL    
   LAYER,ROW,COL  LAYER,ROW,COL  LAYER,ROW,COL  LAYER,ROW,COL  LAYER,ROW,COL
 ---------------------------------------------------------------------------
  1  0.1348E+06  0 -0.9501E+05  0 -0.9416E+05  0 -0.6217E+05  0  -5681.    
   ( 21,  1, 89)  ( 19,  1, 89)  ( 19,  1, 89)  ( 19,  1, 89)  ( 17,  1, 87)
  0   3042.      0   2598.      0   1168.      1   1050.    
   ( 17,  1, 88)  ( 22,  1, 87)  ( 22,  1, 87)  ( 22,  1, 87)


 FLOW MODEL IS TRANSIENT
 FLOW MODEL CONTAINS CONSTANT-HEAD CELLS


 MAXIMUM STEPSIZE DURING WHICH ANY PARTICLE CANNOT MOVE MORE THAN ONE CELL
 =  12.92    (WHEN MIN. R.F.=1)  AT K=  17, I=   1, J=  90

 MAXIMUM STEPSIZE WHICH MEETS STABILITY CRITERION OF THE ADVECTION TERM
 (FOR PURE FINITE-DIFFERENCE OPTION, MIXELM=0) 
 =  8.061    (WHEN MIN. R.F.=1)  AT K=  16, I=   1, J=  90


 TOTAL NUMBER OF POINT SOURCES/SINKS PRESENT IN THE FLOW MODEL =    30

 MAXIMUM STEPSIZE WHICH MEETS STABILITY CRITERION OF THE SINK & SOURCE TERM
 =  12.29    (WHEN MIN. R.F.=1)  AT K=  17, I=   1, J=  91

 MAXIMUM STEPSIZE WHICH MEETS STABILITY CRITERION OF THE DISPERSION TERM
 =  4.054    (WHEN MIN. R.F.=1)  AT K=  17, I=   1, J=  90
     1 CALLS TO GCG PACKAGE FOR TRANSPORT TIME STEP 813 IN FLOW TIME STEP   1 STRESS PERIOD   1
     8 TOTAL ITERATIONS
     1 CALLS TO GCG PACKAGE FOR TRANSPORT TIME STEP 813 IN FLOW TIME STEP   1 STRESS PERIOD   1
     8 TOTAL ITERATIONS
 
 SOLVING FOR HEAD 


     2 CALLS TO PCG ROUTINE FOR TIME STEP   1 IN STRESS PERIOD    1
     9 TOTAL ITERATIONS

 MAXIMUM HEAD CHANGE FOR EACH ITERATION (1 INDICATES THE FIRST INNER ITERATION):

    HEAD CHANGE    HEAD CHANGE    HEAD CHANGE    HEAD CHANGE    HEAD CHANGE 
   LAYER,ROW,COL  LAYER,ROW,COL  LAYER,ROW,COL  LAYER,ROW,COL  LAYER,ROW,COL
 ---------------------------------------------------------------------------
  1 -0.1363E-01  0  0.4065E-02  0  0.3678E-02  0 -0.8069E-02  0  0.8451E-02
   ( 15,  1, 86)  ( 17,  1, 89)  (  8,  1, 12)  ( 11,  1, 56)  ( 11,  1, 55)
  0 -0.1454E-02  0  0.1242E-02  0  0.6069E-03  1 -0.9838E-03
   (  8,  1, 43)  ( 11,  1, 70)  ( 11,  1, 53)  ( 11,  1, 70)

 MAXIMUM RESIDUAL FOR EACH ITERATION (1 INDICATES THE FIRST INNER ITERATION):

    RESIDUAL       RESIDUAL       RESIDUAL       RESIDUAL       RESIDUAL    
   LAYER,ROW,COL  LAYER,ROW,COL  LAYER,ROW,COL  LAYER,ROW,COL  LAYER,ROW,COL
 ---------------------------------------------------------------------------
  1 -0.1369E+06  0  0.9761E+05  0  0.9674E+05  0  0.2183E+05  0   5094.    
   ( 21,  1, 89)  ( 19,  1, 89)  ( 19,  1, 89)  ( 19,  1, 89)  ( 17,  1, 87)
  0  -2815.      0  -2353.      0  -852.6      1  -715.2    
   ( 22,  1, 87)  ( 22,  1, 87)  ( 22,  1, 87)  ( 22,  1, 87)


 FLOW MODEL IS TRANSIENT
 FLOW MODEL CONTAINS CONSTANT-HEAD CELLS


 MAXIMUM STEPSIZE DURING WHICH ANY PARTICLE CANNOT MOVE MORE THAN ONE CELL
 =  13.23    (WHEN MIN. R.F.=1)  AT K=  17, I=   1, J=  90

 MAXIMUM STEPSIZE WHICH MEETS STABILITY CRITERION OF THE ADVECTION TERM
 (FOR PURE FINITE-DIFFERENCE OPTION, MIXELM=0) 
 =  8.005    (WHEN MIN. R.F.=1)  AT K=  16, I=   1, J=  90


 TOTAL NUMBER OF POINT SOURCES/SINKS PRESENT IN THE FLOW MODEL =    30

 MAXIMUM STEPSIZE WHICH MEETS STABILITY CRITERION OF THE SINK & SOURCE TERM
 =  12.19    (WHEN MIN. R.F.=1)  AT K=  17, I=   1, J=  91

 MAXIMUM STEPSIZE WHICH MEETS STABILITY CRITERION OF THE DISPERSION TERM
 =  4.373    (WHEN MIN. R.F.=1)  AT K=  17, I=   1, J=  90
     1 CALLS TO GCG PACKAGE FOR TRANSPORT TIME STEP 814 IN FLOW TIME STEP   1 STRESS PERIOD   1
     7 TOTAL ITERATIONS
     1 CALLS TO GCG PACKAGE FOR TRANSPORT TIME STEP 814 IN FLOW TIME STEP   1 STRESS PERIOD   1
     8 TOTAL ITERATIONS
 
 SOLVING FOR HEAD 


     2 CALLS TO PCG ROUTINE FOR TIME STEP   1 IN STRESS PERIOD    1
     9 TOTAL ITERATIONS

 MAXIMUM HEAD CHANGE FOR EACH ITERATION (1 INDICATES THE FIRST INNER ITERATION):

    HEAD CHANGE    HEAD CHANGE    HEAD CHANGE    HEAD CHANGE    HEAD CHANGE 
   LAYER,ROW,COL  LAYER,ROW,COL  LAYER,ROW,COL  LAYER,ROW,COL  LAYER,ROW,COL
 ---------------------------------------------------------------------------
  1  0.1338E-01  0 -0.3752E-02  0 -0.2423E-02  0 -0.1084E-01  0  0.9677E-02
   ( 15,  1, 86)  ( 17,  1, 89)  (  8,  1, 12)  ( 11,  1, 66)  ( 11,  1, 66)
  0 -0.2253E-02  0 -0.1323E-02  0 -0.8099E-03  1  0.8270E-03
   ( 11,  1, 70)  ( 11,  1, 66)  ( 11,  1, 57)  ( 11,  1, 66)

 MAXIMUM RESIDUAL FOR EACH ITERATION (1 INDICATES THE FIRST INNER ITERATION):

    RESIDUAL       RESIDUAL       RESIDUAL       RESIDUAL       RESIDUAL    
   LAYER,ROW,COL  LAYER,ROW,COL  LAYER,ROW,COL  LAYER,ROW,COL  LAYER,ROW,COL
 ---------------------------------------------------------------------------
  1  0.1353E+06  0 -0.9568E+05  0 -0.9320E+05  0 -0.3353E+05  0  -5937.    
   ( 21,  1, 89)  ( 19,  1, 89)  ( 19,  1, 89)  ( 19,  1, 89)  ( 17,  1, 87)
  0   2852.      0   2535.      0   1058.      1   920.9    
   ( 22,  1, 87)  ( 22,  1, 87)  ( 22,  1, 87)  ( 22,  1, 87)


 FLOW MODEL IS TRANSIENT
 FLOW MODEL CONTAINS CONSTANT-HEAD CELLS


 MAXIMUM STEPSIZE DURING WHICH ANY PARTICLE CANNOT MOVE MORE THAN ONE CELL
 =  12.85    (WHEN MIN. R.F.=1)  AT K=  17, I=   1, J=  90

 MAXIMUM STEPSIZE WHICH MEETS STABILITY CRITERION OF THE ADVECTION TERM
 (FOR PURE FINITE-DIFFERENCE OPTION, MIXELM=0) 
 =  8.033    (WHEN MIN. R.F.=1)  AT K=  16, I=   1, J=  90


 TOTAL NUMBER OF POINT SOURCES/SINKS PRESENT IN THE FLOW MODEL =    30

 MAXIMUM STEPSIZE WHICH MEETS STABILITY CRITERION OF THE SINK & SOURCE TERM
 =  12.21    (WHEN MIN. R.F.=1)  AT K=  17, I=   1, J=  91

 MAXIMUM STEPSIZE WHICH MEETS STABILITY CRITERION OF THE DISPERSION TERM
 =  4.025    (WHEN MIN. R.F.=1)  AT K=  17, I=   1, J=  90
     1 CALLS TO GCG PACKAGE FOR TRANSPORT TIME STEP 815 IN FLOW TIME STEP   1 STRESS PERIOD   1
     8 TOTAL ITERATIONS
  MAXIMUM CONCENTRATION CHANGES FOR EACH ITERATION:
  MAX. CHANGE LAYER,ROW,COL MAX. CHANGE LAYER,ROW,COL MAX. CHANGE LAYER,ROW,COL MAX. CHANGE LAYER,ROW,COL MAX. CHANGE LAYER,ROW,COL
 ------------------------------------------------------------------------------------------------------------------------------------
   0.5259E-01 ( 20,  1, 87)  0.4218E-02 ( 19,  1, 89)  0.2143E-02 ( 17,  1, 86)  0.4733E-03 ( 20,  1, 89)  0.9604E-04 ( 16,  1, 89)
   0.2029E-04 ( 20,  1, 89)  0.1894E-04 ( 16,  1, 90)  0.7251E-06 ( 17,  1, 90)
     1 CALLS TO GCG PACKAGE FOR TRANSPORT TIME STEP 815 IN FLOW TIME STEP   1 STRESS PERIOD   1
     8 TOTAL ITERATIONS
  MAXIMUM CONCENTRATION CHANGES FOR EACH ITERATION:
  MAX. CHANGE LAYER,ROW,COL MAX. CHANGE LAYER,ROW,COL MAX. CHANGE LAYER,ROW,COL MAX. CHANGE LAYER,ROW,COL MAX. CHANGE LAYER,ROW,COL
 ------------------------------------------------------------------------------------------------------------------------------------
   0.5513E-01 ( 20,  1, 87)  0.4469E-02 ( 19,  1, 89)  0.2088E-02 ( 18,  1, 86)  0.4384E-03 ( 20,  1, 89)  0.1016E-03 ( 16,  1, 89)
   0.1512E-04 ( 23,  1, 87)  0.1679E-04 ( 16,  1, 90)  0.7968E-06 ( 17,  1, 90)
 
 SOLVING FOR HEAD 


     2 CALLS TO PCG ROUTINE FOR TIME STEP   1 IN STRESS PERIOD    1
     9 TOTAL ITERATIONS

 MAXIMUM HEAD CHANGE FOR EACH ITERATION (1 INDICATES THE FIRST INNER ITERATION):

    HEAD CHANGE    HEAD CHANGE    HEAD CHANGE    HEAD CHANGE    HEAD CHANGE 
   LAYER,ROW,COL  LAYER,ROW,COL  LAYER,ROW,COL  LAYER,ROW,COL  LAYER,ROW,COL
 ---------------------------------------------------------------------------
  1 -0.1351E-01  0  0.3786E-02  0  0.3300E-02  0 -0.9230E-02  0  0.9411E-02
   ( 15,  1, 86)  ( 17,  1, 89)  (  8,  1, 12)  ( 11,  1, 53)  ( 11,  1, 53)
  0 -0.1332E-02  0  0.1187E-02  0  0.7061E-03  1 -0.9004E-03
   ( 11,  1, 53)  ( 11,  1, 70)  ( 11,  1, 52)  ( 11,  1, 70)

 MAXIMUM RESIDUAL FOR EACH ITERATION (1 INDICATES THE FIRST INNER ITERATION):

    RESIDUAL       RESIDUAL       RESIDUAL       RESIDUAL       RESIDUAL    
   LAYER,ROW,COL  LAYER,ROW,COL  LAYER,ROW,COL  LAYER,ROW,COL  LAYER,ROW,COL
 ---------------------------------------------------------------------------
  1 -0.1335E+06  0  0.9365E+05  0  0.9275E+05  0  0.2678E+05  0   5428.    
   ( 21,  1, 89)  ( 19,  1, 89)  ( 19,  1, 89)  ( 19,  1, 89)  ( 17,  1, 87)
  0  -2835.      0  -2416.      0  -927.5      1  -794.1    
   ( 22,  1, 87)  ( 22,  1, 87)  ( 22,  1, 87)  ( 22,  1, 87)


 FLOW MODEL IS TRANSIENT
 FLOW MODEL CONTAINS CONSTANT-HEAD CELLS


 MAXIMUM STEPSIZE DURING WHICH ANY PARTICLE CANNOT MOVE MORE THAN ONE CELL
 =  13.20    (WHEN MIN. R.F.=1)  AT K=  17, I=   1, J=  90

 MAXIMUM STEPSIZE WHICH MEETS STABILITY CRITERION OF THE ADVECTION TERM
 (FOR PURE FINITE-DIFFERENCE OPTION, MIXELM=0) 
 =  7.998    (WHEN MIN. R.F.=1)  AT K=  16, I=   1, J=  90


 TOTAL NUMBER OF POINT SOURCES/SINKS PRESENT IN THE FLOW MODEL =    30

 MAXIMUM STEPSIZE WHICH MEETS STABILITY CRITERION OF THE SINK & SOURCE TERM
 =  12.16    (WHEN MIN. R.F.=1)  AT K=  17, I=   1, J=  91

 MAXIMUM STEPSIZE WHICH MEETS STABILITY CRITERION OF THE DISPERSION TERM
 =  4.358    (WHEN MIN. R.F.=1)  AT K=  17, I=   1, J=  90
     1 CALLS TO GCG PACKAGE FOR TRANSPORT TIME STEP 816 IN FLOW TIME STEP   1 STRESS PERIOD   1
     7 TOTAL ITERATIONS
     1 CALLS TO GCG PACKAGE FOR TRANSPORT TIME STEP 816 IN FLOW TIME STEP   1 STRESS PERIOD   1
     8 TOTAL ITERATIONS
 
 SOLVING FOR HEAD 


     2 CALLS TO PCG ROUTINE FOR TIME STEP   1 IN STRESS PERIOD    1
    10 TOTAL ITERATIONS

 MAXIMUM HEAD CHANGE FOR EACH ITERATION (1 INDICATES THE FIRST INNER ITERATION):

    HEAD CHANGE    HEAD CHANGE    HEAD CHANGE    HEAD CHANGE    HEAD CHANGE 
   LAYER,ROW,COL  LAYER,ROW,COL  LAYER,ROW,COL  LAYER,ROW,COL  LAYER,ROW,COL
 ---------------------------------------------------------------------------
  1  0.1353E-01  0 -0.3770E-02  0 -0.2319E-02  0 -0.1140E-01  0  0.9993E-02
   ( 15,  1, 86)  ( 17,  1, 89)  (  8,  1, 12)  ( 11,  1, 66)  ( 11,  1, 66)
  0  0.1742E-02  0 -0.1577E-02  0 -0.1091E-02  0  0.7645E-03  1  0.3896E-03
   ( 11,  1, 65)  ( 11,  1, 65)  ( 11,  1, 57)  ( 11,  1, 56)  ( 11,  1, 70)

 MAXIMUM RESIDUAL FOR EACH ITERATION (1 INDICATES THE FIRST INNER ITERATION):

    RESIDUAL       RESIDUAL       RESIDUAL       RESIDUAL       RESIDUAL    
   LAYER,ROW,COL  LAYER,ROW,COL  LAYER,ROW,COL  LAYER,ROW,COL  LAYER,ROW,COL
 ---------------------------------------------------------------------------
  1  0.1320E+06  0 -0.9281E+05  0 -0.9106E+05  0 -0.3443E+05  0  -5907.    
   ( 21,  1, 89)  ( 19,  1, 89)  ( 19,  1, 89)  ( 19,  1, 89)  ( 17,  1, 87)
  0   2869.      0   2546.      0   1071.      0   400.6      1   347.7    
   ( 22,  1, 87)  ( 22,  1, 87)  ( 22,  1, 87)  ( 22,  1, 87)  ( 22,  1, 87)


 FLOW MODEL IS TRANSIENT
 FLOW MODEL CONTAINS CONSTANT-HEAD CELLS


 MAXIMUM STEPSIZE DURING WHICH ANY PARTICLE CANNOT MOVE MORE THAN ONE CELL
 =  12.86    (WHEN MIN. R.F.=1)  AT K=  17, I=   1, J=  90

 MAXIMUM STEPSIZE WHICH MEETS STABILITY CRITERION OF THE ADVECTION TERM
 (FOR PURE FINITE-DIFFERENCE OPTION, MIXELM=0) 
 =  8.036    (WHEN MIN. R.F.=1)  AT K=  16, I=   1, J=  90


 TOTAL NUMBER OF POINT SOURCES/SINKS PRESENT IN THE FLOW MODEL =    30

 MAXIMUM STEPSIZE WHICH MEETS STABILITY CRITERION OF THE SINK & SOURCE TERM
 =  12.20    (WHEN MIN. R.F.=1)  AT K=  17, I=   1, J=  91

 MAXIMUM STEPSIZE WHICH MEETS STABILITY CRITERION OF THE DISPERSION TERM
 =  4.032    (WHEN MIN. R.F.=1)  AT K=  17, I=   1, J=  90
     1 CALLS TO GCG PACKAGE FOR TRANSPORT TIME STEP 817 IN FLOW TIME STEP   1 STRESS PERIOD   1
     8 TOTAL ITERATIONS
     1 CALLS TO GCG PACKAGE FOR TRANSPORT TIME STEP 817 IN FLOW TIME STEP   1 STRESS PERIOD   1
     8 TOTAL ITERATIONS
 
 SOLVING FOR HEAD 


     2 CALLS TO PCG ROUTINE FOR TIME STEP   1 IN STRESS PERIOD    1
     9 TOTAL ITERATIONS

 MAXIMUM HEAD CHANGE FOR EACH ITERATION (1 INDICATES THE FIRST INNER ITERATION):

    HEAD CHANGE    HEAD CHANGE    HEAD CHANGE    HEAD CHANGE    HEAD CHANGE 
   LAYER,ROW,COL  LAYER,ROW,COL  LAYER,ROW,COL  LAYER,ROW,COL  LAYER,ROW,COL
 ---------------------------------------------------------------------------
  1 -0.1342E-01  0  0.3591E-02  0  0.2322E-02  0  0.5708E-02  0 -0.7608E-02
   ( 15,  1, 86)  ( 17,  1, 89)  (  8,  1, 12)  ( 11,  1, 54)  ( 11,  1, 54)
  0  0.2088E-02  0  0.1337E-02  0  0.9557E-03  1 -0.5738E-03
   ( 11,  1, 53)  ( 11,  1, 65)  ( 11,  1, 70)  ( 11,  1, 66)

 MAXIMUM RESIDUAL FOR EACH ITERATION (1 INDICATES THE FIRST INNER ITERATION):

    RESIDUAL       RESIDUAL       RESIDUAL       RESIDUAL       RESIDUAL    
   LAYER,ROW,COL  LAYER,ROW,COL  LAYER,ROW,COL  LAYER,ROW,COL  LAYER,ROW,COL
 ---------------------------------------------------------------------------
  1 -0.1322E+06  0  0.9279E+05  0  0.9114E+05  0  0.1510E+05  0   4377.    
   ( 21,  1, 89)  ( 19,  1, 89)  ( 19,  1, 89)  ( 19,  1, 89)  ( 17,  1, 87)
  0  -2846.      0  -2231.      0  -775.0      1  -675.4    
   ( 22,  1, 87)  ( 22,  1, 87)  ( 22,  1, 87)  ( 22,  1, 87)


 FLOW MODEL IS TRANSIENT
 FLOW MODEL CONTAINS CONSTANT-HEAD CELLS


 MAXIMUM STEPSIZE DURING WHICH ANY PARTICLE CANNOT MOVE MORE THAN ONE CELL
 =  13.22    (WHEN MIN. R.F.=1)  AT K=  17, I=   1, J=  90

 MAXIMUM STEPSIZE WHICH MEETS STABILITY CRITERION OF THE ADVECTION TERM
 (FOR PURE FINITE-DIFFERENCE OPTION, MIXELM=0) 
 =  8.007    (WHEN MIN. R.F.=1)  AT K=  16, I=   1, J=  90


 TOTAL NUMBER OF POINT SOURCES/SINKS PRESENT IN THE FLOW MODEL =    30

 MAXIMUM STEPSIZE WHICH MEETS STABILITY CRITERION OF THE SINK & SOURCE TERM
 =  12.18    (WHEN MIN. R.F.=1)  AT K=  17, I=   1, J=  91

 MAXIMUM STEPSIZE WHICH MEETS STABILITY CRITERION OF THE DISPERSION TERM
 =  4.363    (WHEN MIN. R.F.=1)  AT K=  17, I=   1, J=  90
     1 CALLS TO GCG PACKAGE FOR TRANSPORT TIME STEP 818 IN FLOW TIME STEP   1 STRESS PERIOD   1
     7 TOTAL ITERATIONS
     1 CALLS TO GCG PACKAGE FOR TRANSPORT TIME STEP 818 IN FLOW TIME STEP   1 STRESS PERIOD   1
     8 TOTAL ITERATIONS
 
 SOLVING FOR HEAD 


     2 CALLS TO PCG ROUTINE FOR TIME STEP   1 IN STRESS PERIOD    1
     9 TOTAL ITERATIONS

 MAXIMUM HEAD CHANGE FOR EACH ITERATION (1 INDICATES THE FIRST INNER ITERATION):

    HEAD CHANGE    HEAD CHANGE    HEAD CHANGE    HEAD CHANGE    HEAD CHANGE 
   LAYER,ROW,COL  LAYER,ROW,COL  LAYER,ROW,COL  LAYER,ROW,COL  LAYER,ROW,COL
 ---------------------------------------------------------------------------
  1  0.1343E-01  0 -0.3544E-02  0 -0.2558E-02  0  0.8540E-02  0 -0.8366E-02
   ( 15,  1, 86)  ( 17,  1, 89)  (  8,  1, 12)  (  8,  1, 53)  (  8,  1, 53)
  0  0.1355E-02  0 -0.1071E-02  0 -0.7928E-03  1  0.9276E-03
   ( 11,  1, 70)  ( 11,  1, 50)  ( 11,  1, 70)  ( 11,  1, 70)

 MAXIMUM RESIDUAL FOR EACH ITERATION (1 INDICATES THE FIRST INNER ITERATION):

    RESIDUAL       RESIDUAL       RESIDUAL       RESIDUAL       RESIDUAL    
   LAYER,ROW,COL  LAYER,ROW,COL  LAYER,ROW,COL  LAYER,ROW,COL  LAYER,ROW,COL
 ---------------------------------------------------------------------------
  1  0.1313E+06  0 -0.9144E+05  0 -0.8871E+05  0 -0.3563E+05  0  -5998.    
   ( 21,  1, 89)  ( 19,  1, 89)  ( 19,  1, 89)  ( 19,  1, 89)  ( 17,  1, 87)
  0   2923.      0   2358.      0   850.5      1   716.4    
   ( 22,  1, 87)  ( 22,  1, 87)  ( 22,  1, 87)  ( 22,  1, 87)


 FLOW MODEL IS TRANSIENT
 FLOW MODEL CONTAINS CONSTANT-HEAD CELLS


 MAXIMUM STEPSIZE DURING WHICH ANY PARTICLE CANNOT MOVE MORE THAN ONE CELL
 =  12.87    (WHEN MIN. R.F.=1)  AT K=  17, I=   1, J=  90

 MAXIMUM STEPSIZE WHICH MEETS STABILITY CRITERION OF THE ADVECTION TERM
 (FOR PURE FINITE-DIFFERENCE OPTION, MIXELM=0) 
 =  8.036    (WHEN MIN. R.F.=1)  AT K=  16, I=   1, J=  90


 TOTAL NUMBER OF POINT SOURCES/SINKS PRESENT IN THE FLOW MODEL =    30

 MAXIMUM STEPSIZE WHICH MEETS STABILITY CRITERION OF THE SINK & SOURCE TERM
 =  12.21    (WHEN MIN. R.F.=1)  AT K=  17, I=   1, J=  91

 MAXIMUM STEPSIZE WHICH MEETS STABILITY CRITERION OF THE DISPERSION TERM
 =  4.038    (WHEN MIN. R.F.=1)  AT K=  17, I=   1, J=  90
     1 CALLS TO GCG PACKAGE FOR TRANSPORT TIME STEP 819 IN FLOW TIME STEP   1 STRESS PERIOD   1
     8 TOTAL ITERATIONS
     1 CALLS TO GCG PACKAGE FOR TRANSPORT TIME STEP 819 IN FLOW TIME STEP   1 STRESS PERIOD   1
     8 TOTAL ITERATIONS
 
 SOLVING FOR HEAD 


     2 CALLS TO PCG ROUTINE FOR TIME STEP   1 IN STRESS PERIOD    1
     8 TOTAL ITERATIONS

 MAXIMUM HEAD CHANGE FOR EACH ITERATION (1 INDICATES THE FIRST INNER ITERATION):

    HEAD CHANGE    HEAD CHANGE    HEAD CHANGE    HEAD CHANGE    HEAD CHANGE 
   LAYER,ROW,COL  LAYER,ROW,COL  LAYER,ROW,COL  LAYER,ROW,COL  LAYER,ROW,COL
 ---------------------------------------------------------------------------
  1 -0.1346E-01  0  0.3631E-02  0  0.2345E-02  0  0.1192E-01  0 -0.1204E-01
   ( 15,  1, 86)  ( 17,  1, 89)  (  8,  1, 12)  ( 11,  1, 55)  ( 11,  1, 55)
  0 -0.1194E-02  0  0.8851E-03  1  0.5432E-03
   ( 11,  1, 35)  ( 11,  1, 56)  ( 11,  1, 61)

 MAXIMUM RESIDUAL FOR EACH ITERATION (1 INDICATES THE FIRST INNER ITERATION):

    RESIDUAL       RESIDUAL       RESIDUAL       RESIDUAL       RESIDUAL    
   LAYER,ROW,COL  LAYER,ROW,COL  LAYER,ROW,COL  LAYER,ROW,COL  LAYER,ROW,COL
 ---------------------------------------------------------------------------
  1 -0.1328E+06  0  0.9371E+05  0  0.9209E+05  0  0.2841E+05  0   5378.    
   ( 21,  1, 89)  ( 19,  1, 89)  ( 19,  1, 89)  ( 19,  1, 89)  ( 17,  1, 87)
  0  -2844.      0  -2321.      1  -2040.    
   ( 22,  1, 87)  ( 22,  1, 87)  ( 22,  1, 87)


 FLOW MODEL IS TRANSIENT
 FLOW MODEL CONTAINS CONSTANT-HEAD CELLS


 MAXIMUM STEPSIZE DURING WHICH ANY PARTICLE CANNOT MOVE MORE THAN ONE CELL
 =  13.21    (WHEN MIN. R.F.=1)  AT K=  17, I=   1, J=  90

 MAXIMUM STEPSIZE WHICH MEETS STABILITY CRITERION OF THE ADVECTION TERM
 (FOR PURE FINITE-DIFFERENCE OPTION, MIXELM=0) 
 =  8.004    (WHEN MIN. R.F.=1)  AT K=  16, I=   1, J=  90


 TOTAL NUMBER OF POINT SOURCES/SINKS PRESENT IN THE FLOW MODEL =    30

 MAXIMUM STEPSIZE WHICH MEETS STABILITY CRITERION OF THE SINK & SOURCE TERM
 =  12.17    (WHEN MIN. R.F.=1)  AT K=  17, I=   1, J=  91

 MAXIMUM STEPSIZE WHICH MEETS STABILITY CRITERION OF THE DISPERSION TERM
 =  4.355    (WHEN MIN. R.F.=1)  AT K=  17, I=   1, J=  90
     1 CALLS TO GCG PACKAGE FOR TRANSPORT TIME STEP 820 IN FLOW TIME STEP   1 STRESS PERIOD   1
     8 TOTAL ITERATIONS
  MAXIMUM CONCENTRATION CHANGES FOR EACH ITERATION:
  MAX. CHANGE LAYER,ROW,COL MAX. CHANGE LAYER,ROW,COL MAX. CHANGE LAYER,ROW,COL MAX. CHANGE LAYER,ROW,COL MAX. CHANGE LAYER,ROW,COL
 ------------------------------------------------------------------------------------------------------------------------------------
   0.4901E-01 ( 20,  1, 87)  0.3327E-02 ( 19,  1, 87)  0.2157E-02 ( 18,  1, 87)  0.2148E-03 ( 16,  1, 88)  0.1447E-03 ( 16,  1, 89)
   0.2740E-04 ( 16,  1, 90)  0.3383E-05 ( 21,  1, 78)  0.5622E-06 ( 16,  1, 89)
     1 CALLS TO GCG PACKAGE FOR TRANSPORT TIME STEP 820 IN FLOW TIME STEP   1 STRESS PERIOD   1
     8 TOTAL ITERATIONS
  MAXIMUM CONCENTRATION CHANGES FOR EACH ITERATION:
  MAX. CHANGE LAYER,ROW,COL MAX. CHANGE LAYER,ROW,COL MAX. CHANGE LAYER,ROW,COL MAX. CHANGE LAYER,ROW,COL MAX. CHANGE LAYER,ROW,COL
 ------------------------------------------------------------------------------------------------------------------------------------
   0.5131E-01 ( 20,  1, 87)  0.3368E-02 ( 19,  1, 87)  0.2233E-02 ( 18,  1, 87)  0.2122E-03 ( 16,  1, 88)  0.1297E-03 ( 16,  1, 89)
   0.3144E-04 ( 16,  1, 90)  0.4658E-05 ( 17,  1, 90)  0.5079E-06 ( 16,  1, 89)



 >>>>>>>>>>>>>>>>>>>>>>>>>>>>>>>>>>>>>>>>>>>>>>>>>>>>>>>FOR COMPONENT NO. 01<<<<<<<<<<<<<<<<<<<<<<<<<<<<<<<<<<<<<<<<<<<<<<<<<<<<<<<


                                            -------------------------------------------
                                                      TRANSPORT STEP NO.  820
                                            -------------------------------------------

 TOTAL ELAPSED TIME SINCE BEGINNING OF SIMULATION =   41000.00    D   
 .....................................................................

                     CUMMULATIVE MASS BUDGETS AT END OF TRANSPORT STEP  820, TIME STEP    1, STRESS PERIOD    1
                     ------------------------------------------------------------------------------------------

                                                             IN                           OUT
                                                      ----------------             ----------------
                               CONSTANT CONCENTRATION:    0.000000                    0.000000    
                                        CONSTANT HEAD:   0.1622213E+10              -0.1622000E+10
                                                WELLS:    0.000000                    0.000000    
                                             RECHARGE:    0.000000                    0.000000    
                               1ST/0TH ORDER REACTION:    0.000000                    0.000000    
                                MASS STORAGE (SOLUTE):   0.2267576E+09              -0.2269716E+09
                            ---------------------------------------------------------------------------
                                              [TOTAL]:   0.1848973E+10 KG           -0.1848973E+10 KG  

                                                          NET (IN - OUT):   -320.8126    
                                                   DISCREPANCY (PERCENT):  -0.1735085E-04



 >>>>>>>>>>>>>>>>>>>>>>>>>>>>>>>>>>>>>>>>>>>>>>>>>>>>>>>FOR COMPONENT NO. 02<<<<<<<<<<<<<<<<<<<<<<<<<<<<<<<<<<<<<<<<<<<<<<<<<<<<<<<


                                            -------------------------------------------
                                                      TRANSPORT STEP NO.  820
                                            -------------------------------------------

 TOTAL ELAPSED TIME SINCE BEGINNING OF SIMULATION =   41000.00    D   
 .....................................................................

                     CUMMULATIVE MASS BUDGETS AT END OF TRANSPORT STEP  820, TIME STEP    1, STRESS PERIOD    1
                     ------------------------------------------------------------------------------------------

                                                             IN                           OUT
                                                      ----------------             ----------------
                               CONSTANT CONCENTRATION:    0.000000                    0.000000    
                                        CONSTANT HEAD:    0.000000                  -0.3405776E+12
                                                WELLS:    0.000000                    0.000000    
                                             RECHARGE:    0.000000                    0.000000    
                               1ST/0TH ORDER REACTION:   0.6785500E+12                0.000000    
                                MASS STORAGE (SOLUTE):   0.1295524E+12              -0.4675249E+12
                            ---------------------------------------------------------------------------
                                              [TOTAL]:   0.8081042E+12 KG           -0.8081043E+12 KG  

                                                          NET (IN - OUT):   -110631.3    
                                                   DISCREPANCY (PERCENT):  -0.1369023E-04
 
 SOLVING FOR HEAD 


     2 CALLS TO PCG ROUTINE FOR TIME STEP   1 IN STRESS PERIOD    1
     9 TOTAL ITERATIONS

 MAXIMUM HEAD CHANGE FOR EACH ITERATION (1 INDICATES THE FIRST INNER ITERATION):

    HEAD CHANGE    HEAD CHANGE    HEAD CHANGE    HEAD CHANGE    HEAD CHANGE 
   LAYER,ROW,COL  LAYER,ROW,COL  LAYER,ROW,COL  LAYER,ROW,COL  LAYER,ROW,COL
 ---------------------------------------------------------------------------
  1  0.1385E-01  0  0.4710E-02  0 -0.3829E-02  0 -0.9148E-02  0  0.7757E-02
   ( 15,  1, 86)  (  5,  1, 45)  (  8,  1, 12)  (  9,  1, 54)  (  8,  1, 52)
  0 -0.2283E-02  0  0.1225E-02  0 -0.7047E-03  1  0.5522E-03
   ( 11,  1, 55)  ( 11,  1, 55)  ( 11,  1, 53)  ( 11,  1, 51)

 MAXIMUM RESIDUAL FOR EACH ITERATION (1 INDICATES THE FIRST INNER ITERATION):

    RESIDUAL       RESIDUAL       RESIDUAL       RESIDUAL       RESIDUAL    
   LAYER,ROW,COL  LAYER,ROW,COL  LAYER,ROW,COL  LAYER,ROW,COL  LAYER,ROW,COL
 ---------------------------------------------------------------------------
  1  0.1328E+06  0 -0.9411E+05  0 -0.9332E+05  0 -0.6396E+05  0  -5727.    
   ( 21,  1, 89)  ( 19,  1, 89)  ( 19,  1, 89)  ( 19,  1, 89)  ( 17,  1, 87)
  0   2851.      0   2569.      0   874.2      1   777.5    
   ( 22,  1, 87)  ( 22,  1, 87)  ( 22,  1, 87)  ( 22,  1, 87)


 FLOW MODEL IS TRANSIENT
 FLOW MODEL CONTAINS CONSTANT-HEAD CELLS


 MAXIMUM STEPSIZE DURING WHICH ANY PARTICLE CANNOT MOVE MORE THAN ONE CELL
 =  12.91    (WHEN MIN. R.F.=1)  AT K=  17, I=   1, J=  90

 MAXIMUM STEPSIZE WHICH MEETS STABILITY CRITERION OF THE ADVECTION TERM
 (FOR PURE FINITE-DIFFERENCE OPTION, MIXELM=0) 
 =  8.055    (WHEN MIN. R.F.=1)  AT K=  16, I=   1, J=  90


 TOTAL NUMBER OF POINT SOURCES/SINKS PRESENT IN THE FLOW MODEL =    30

 MAXIMUM STEPSIZE WHICH MEETS STABILITY CRITERION OF THE SINK & SOURCE TERM
 =  12.27    (WHEN MIN. R.F.=1)  AT K=  17, I=   1, J=  91

 MAXIMUM STEPSIZE WHICH MEETS STABILITY CRITERION OF THE DISPERSION TERM
 =  4.047    (WHEN MIN. R.F.=1)  AT K=  17, I=   1, J=  90
     1 CALLS TO GCG PACKAGE FOR TRANSPORT TIME STEP 821 IN FLOW TIME STEP   1 STRESS PERIOD   1
     8 TOTAL ITERATIONS
     1 CALLS TO GCG PACKAGE FOR TRANSPORT TIME STEP 821 IN FLOW TIME STEP   1 STRESS PERIOD   1
     8 TOTAL ITERATIONS
 
 SOLVING FOR HEAD 


     2 CALLS TO PCG ROUTINE FOR TIME STEP   1 IN STRESS PERIOD    1
     9 TOTAL ITERATIONS

 MAXIMUM HEAD CHANGE FOR EACH ITERATION (1 INDICATES THE FIRST INNER ITERATION):

    HEAD CHANGE    HEAD CHANGE    HEAD CHANGE    HEAD CHANGE    HEAD CHANGE 
   LAYER,ROW,COL  LAYER,ROW,COL  LAYER,ROW,COL  LAYER,ROW,COL  LAYER,ROW,COL
 ---------------------------------------------------------------------------
  1 -0.1356E-01  0  0.3909E-02  0  0.3035E-02  0 -0.1028E-01  0  0.1060E-01
   ( 15,  1, 86)  ( 17,  1, 89)  (  8,  1, 12)  ( 11,  1, 52)  ( 11,  1, 52)
  0 -0.1839E-02  0  0.1476E-02  0 -0.8628E-03  1 -0.5639E-03
   ( 11,  1, 55)  ( 11,  1, 65)  ( 11,  1, 65)  ( 11,  1, 70)

 MAXIMUM RESIDUAL FOR EACH ITERATION (1 INDICATES THE FIRST INNER ITERATION):

    RESIDUAL       RESIDUAL       RESIDUAL       RESIDUAL       RESIDUAL    
   LAYER,ROW,COL  LAYER,ROW,COL  LAYER,ROW,COL  LAYER,ROW,COL  LAYER,ROW,COL
 ---------------------------------------------------------------------------
  1 -0.1335E+06  0  0.9466E+05  0  0.9367E+05  0  0.2329E+05  0   5180.    
   ( 21,  1, 89)  ( 19,  1, 89)  ( 19,  1, 89)  ( 19,  1, 89)  ( 17,  1, 87)
  0  -2894.      0  -1911.      0  -611.2      1  -523.7    
   ( 22,  1, 87)  ( 22,  1, 87)  ( 22,  1, 87)  ( 22,  1, 87)


 FLOW MODEL IS TRANSIENT
 FLOW MODEL CONTAINS CONSTANT-HEAD CELLS


 MAXIMUM STEPSIZE DURING WHICH ANY PARTICLE CANNOT MOVE MORE THAN ONE CELL
 =  13.23    (WHEN MIN. R.F.=1)  AT K=  17, I=   1, J=  90

 MAXIMUM STEPSIZE WHICH MEETS STABILITY CRITERION OF THE ADVECTION TERM
 (FOR PURE FINITE-DIFFERENCE OPTION, MIXELM=0) 
 =  8.009    (WHEN MIN. R.F.=1)  AT K=  16, I=   1, J=  90


 TOTAL NUMBER OF POINT SOURCES/SINKS PRESENT IN THE FLOW MODEL =    30

 MAXIMUM STEPSIZE WHICH MEETS STABILITY CRITERION OF THE SINK & SOURCE TERM
 =  12.19    (WHEN MIN. R.F.=1)  AT K=  17, I=   1, J=  91

 MAXIMUM STEPSIZE WHICH MEETS STABILITY CRITERION OF THE DISPERSION TERM
 =  4.369    (WHEN MIN. R.F.=1)  AT K=  17, I=   1, J=  90
     1 CALLS TO GCG PACKAGE FOR TRANSPORT TIME STEP 822 IN FLOW TIME STEP   1 STRESS PERIOD   1
     9 TOTAL ITERATIONS
     1 CALLS TO GCG PACKAGE FOR TRANSPORT TIME STEP 822 IN FLOW TIME STEP   1 STRESS PERIOD   1
     8 TOTAL ITERATIONS
 
 SOLVING FOR HEAD 


     2 CALLS TO PCG ROUTINE FOR TIME STEP   1 IN STRESS PERIOD    1
     9 TOTAL ITERATIONS

 MAXIMUM HEAD CHANGE FOR EACH ITERATION (1 INDICATES THE FIRST INNER ITERATION):

    HEAD CHANGE    HEAD CHANGE    HEAD CHANGE    HEAD CHANGE    HEAD CHANGE 
   LAYER,ROW,COL  LAYER,ROW,COL  LAYER,ROW,COL  LAYER,ROW,COL  LAYER,ROW,COL
 ---------------------------------------------------------------------------
  1  0.1328E-01  0 -0.3603E-02  0 -0.4170E-02  0  0.7607E-02  0 -0.9010E-02
   ( 15,  1, 86)  ( 17,  1, 89)  (  7,  1, 12)  ( 11,  1, 49)  ( 11,  1, 49)
  0  0.1427E-02  0 -0.1230E-02  0 -0.9061E-03  1  0.8415E-03
   ( 11,  1, 43)  ( 11,  1, 56)  ( 11,  1, 66)  ( 11,  1, 66)

 MAXIMUM RESIDUAL FOR EACH ITERATION (1 INDICATES THE FIRST INNER ITERATION):

    RESIDUAL       RESIDUAL       RESIDUAL       RESIDUAL       RESIDUAL    
   LAYER,ROW,COL  LAYER,ROW,COL  LAYER,ROW,COL  LAYER,ROW,COL  LAYER,ROW,COL
 ---------------------------------------------------------------------------
  1  0.1341E+06  0 -0.9437E+05  0 -0.8130E+05  0 -0.2264E+05  0  -5537.    
   ( 21,  1, 89)  ( 19,  1, 89)  ( 19,  1, 89)  ( 19,  1, 89)  ( 17,  1, 87)
  0   2852.      0   2550.      0   963.5      1   830.5    
   ( 22,  1, 87)  ( 22,  1, 87)  ( 22,  1, 87)  ( 22,  1, 87)


 FLOW MODEL IS TRANSIENT
 FLOW MODEL CONTAINS CONSTANT-HEAD CELLS


 MAXIMUM STEPSIZE DURING WHICH ANY PARTICLE CANNOT MOVE MORE THAN ONE CELL
 =  12.85    (WHEN MIN. R.F.=1)  AT K=  17, I=   1, J=  90

 MAXIMUM STEPSIZE WHICH MEETS STABILITY CRITERION OF THE ADVECTION TERM
 (FOR PURE FINITE-DIFFERENCE OPTION, MIXELM=0) 
 =  8.033    (WHEN MIN. R.F.=1)  AT K=  16, I=   1, J=  90


 TOTAL NUMBER OF POINT SOURCES/SINKS PRESENT IN THE FLOW MODEL =    30

 MAXIMUM STEPSIZE WHICH MEETS STABILITY CRITERION OF THE SINK & SOURCE TERM
 =  12.20    (WHEN MIN. R.F.=1)  AT K=  17, I=   1, J=  91

 MAXIMUM STEPSIZE WHICH MEETS STABILITY CRITERION OF THE DISPERSION TERM
 =  4.027    (WHEN MIN. R.F.=1)  AT K=  17, I=   1, J=  90
     1 CALLS TO GCG PACKAGE FOR TRANSPORT TIME STEP 823 IN FLOW TIME STEP   1 STRESS PERIOD   1
     8 TOTAL ITERATIONS
     1 CALLS TO GCG PACKAGE FOR TRANSPORT TIME STEP 823 IN FLOW TIME STEP   1 STRESS PERIOD   1
     8 TOTAL ITERATIONS
 
 SOLVING FOR HEAD 


     2 CALLS TO PCG ROUTINE FOR TIME STEP   1 IN STRESS PERIOD    1
    10 TOTAL ITERATIONS

 MAXIMUM HEAD CHANGE FOR EACH ITERATION (1 INDICATES THE FIRST INNER ITERATION):

    HEAD CHANGE    HEAD CHANGE    HEAD CHANGE    HEAD CHANGE    HEAD CHANGE 
   LAYER,ROW,COL  LAYER,ROW,COL  LAYER,ROW,COL  LAYER,ROW,COL  LAYER,ROW,COL
 ---------------------------------------------------------------------------
  1 -0.1349E-01  0  0.3690E-02  0  0.3061E-02  0  0.1129E-01  0 -0.1182E-01
   ( 15,  1, 86)  ( 17,  1, 89)  (  8,  1, 12)  ( 11,  1, 59)  ( 11,  1, 59)
  0 -0.2169E-02  0  0.1050E-02  0  0.1000E-02  0 -0.9660E-03  1 -0.3116E-03
   ( 11,  1, 70)  ( 11,  1, 60)  ( 11,  1, 70)  ( 11,  1, 70)  ( 11,  1, 55)

 MAXIMUM RESIDUAL FOR EACH ITERATION (1 INDICATES THE FIRST INNER ITERATION):

    RESIDUAL       RESIDUAL       RESIDUAL       RESIDUAL       RESIDUAL    
   LAYER,ROW,COL  LAYER,ROW,COL  LAYER,ROW,COL  LAYER,ROW,COL  LAYER,ROW,COL
 ---------------------------------------------------------------------------
  1 -0.1322E+06  0  0.9237E+05  0  0.9143E+05  0  0.2169E+05  0   5039.    
   ( 21,  1, 89)  ( 19,  1, 89)  ( 19,  1, 89)  ( 19,  1, 89)  ( 17,  1, 87)
  0  -2841.      0  -2548.      0  -1025.      0  -392.3      1  -340.7    
   ( 22,  1, 87)  ( 22,  1, 87)  ( 22,  1, 87)  ( 22,  1, 87)  ( 22,  1, 87)


 FLOW MODEL IS TRANSIENT
 FLOW MODEL CONTAINS CONSTANT-HEAD CELLS


 MAXIMUM STEPSIZE DURING WHICH ANY PARTICLE CANNOT MOVE MORE THAN ONE CELL
 =  13.20    (WHEN MIN. R.F.=1)  AT K=  17, I=   1, J=  90

 MAXIMUM STEPSIZE WHICH MEETS STABILITY CRITERION OF THE ADVECTION TERM
 (FOR PURE FINITE-DIFFERENCE OPTION, MIXELM=0) 
 =  7.998    (WHEN MIN. R.F.=1)  AT K=  16, I=   1, J=  90


 TOTAL NUMBER OF POINT SOURCES/SINKS PRESENT IN THE FLOW MODEL =    30

 MAXIMUM STEPSIZE WHICH MEETS STABILITY CRITERION OF THE SINK & SOURCE TERM
 =  12.16    (WHEN MIN. R.F.=1)  AT K=  17, I=   1, J=  91

 MAXIMUM STEPSIZE WHICH MEETS STABILITY CRITERION OF THE DISPERSION TERM
 =  4.350    (WHEN MIN. R.F.=1)  AT K=  17, I=   1, J=  90
     1 CALLS TO GCG PACKAGE FOR TRANSPORT TIME STEP 824 IN FLOW TIME STEP   1 STRESS PERIOD   1
     7 TOTAL ITERATIONS
     1 CALLS TO GCG PACKAGE FOR TRANSPORT TIME STEP 824 IN FLOW TIME STEP   1 STRESS PERIOD   1
     8 TOTAL ITERATIONS
 
 SOLVING FOR HEAD 


     2 CALLS TO PCG ROUTINE FOR TIME STEP   1 IN STRESS PERIOD    1
     9 TOTAL ITERATIONS

 MAXIMUM HEAD CHANGE FOR EACH ITERATION (1 INDICATES THE FIRST INNER ITERATION):

    HEAD CHANGE    HEAD CHANGE    HEAD CHANGE    HEAD CHANGE    HEAD CHANGE 
   LAYER,ROW,COL  LAYER,ROW,COL  LAYER,ROW,COL  LAYER,ROW,COL  LAYER,ROW,COL
 ---------------------------------------------------------------------------
  1  0.1343E-01  0 -0.3595E-02  0 -0.3398E-02  0  0.5381E-02  0 -0.6949E-02
   ( 15,  1, 86)  ( 17,  1, 89)  (  8,  1, 12)  ( 11,  1, 55)  ( 11,  1, 55)
  0  0.1878E-02  0 -0.1314E-02  0 -0.8447E-03  1  0.5606E-03
   (  9,  1, 47)  ( 11,  1, 70)  ( 11,  1, 55)  ( 11,  1, 59)

 MAXIMUM RESIDUAL FOR EACH ITERATION (1 INDICATES THE FIRST INNER ITERATION):

    RESIDUAL       RESIDUAL       RESIDUAL       RESIDUAL       RESIDUAL    
   LAYER,ROW,COL  LAYER,ROW,COL  LAYER,ROW,COL  LAYER,ROW,COL  LAYER,ROW,COL
 ---------------------------------------------------------------------------
  1  0.1306E+06  0 -0.9125E+05  0 -0.8429E+05  0 -0.1360E+05  0  -4144.    
   ( 21,  1, 89)  ( 19,  1, 89)  ( 19,  1, 89)  ( 17,  1, 87)  ( 17,  1, 87)
  0   2884.      0   2440.      0   877.8      1   764.6    
   ( 22,  1, 87)  ( 22,  1, 87)  ( 22,  1, 87)  ( 22,  1, 87)


 FLOW MODEL IS TRANSIENT
 FLOW MODEL CONTAINS CONSTANT-HEAD CELLS


 MAXIMUM STEPSIZE DURING WHICH ANY PARTICLE CANNOT MOVE MORE THAN ONE CELL
 =  12.85    (WHEN MIN. R.F.=1)  AT K=  17, I=   1, J=  90

 MAXIMUM STEPSIZE WHICH MEETS STABILITY CRITERION OF THE ADVECTION TERM
 (FOR PURE FINITE-DIFFERENCE OPTION, MIXELM=0) 
 =  8.029    (WHEN MIN. R.F.=1)  AT K=  16, I=   1, J=  90


 TOTAL NUMBER OF POINT SOURCES/SINKS PRESENT IN THE FLOW MODEL =    30

 MAXIMUM STEPSIZE WHICH MEETS STABILITY CRITERION OF THE SINK & SOURCE TERM
 =  12.19    (WHEN MIN. R.F.=1)  AT K=  17, I=   1, J=  91

 MAXIMUM STEPSIZE WHICH MEETS STABILITY CRITERION OF THE DISPERSION TERM
 =  4.028    (WHEN MIN. R.F.=1)  AT K=  17, I=   1, J=  90
     1 CALLS TO GCG PACKAGE FOR TRANSPORT TIME STEP 825 IN FLOW TIME STEP   1 STRESS PERIOD   1
     8 TOTAL ITERATIONS
  MAXIMUM CONCENTRATION CHANGES FOR EACH ITERATION:
  MAX. CHANGE LAYER,ROW,COL MAX. CHANGE LAYER,ROW,COL MAX. CHANGE LAYER,ROW,COL MAX. CHANGE LAYER,ROW,COL MAX. CHANGE LAYER,ROW,COL
 ------------------------------------------------------------------------------------------------------------------------------------
   0.5276E-01 ( 20,  1, 87)  0.4142E-02 ( 19,  1, 89)  0.2177E-02 ( 18,  1, 86)  0.4573E-03 ( 20,  1, 89)  0.9587E-04 ( 16,  1, 89)
   0.2002E-04 ( 20,  1, 89)  0.1670E-04 ( 16,  1, 90)  0.7673E-06 ( 17,  1, 90)
     1 CALLS TO GCG PACKAGE FOR TRANSPORT TIME STEP 825 IN FLOW TIME STEP   1 STRESS PERIOD   1
     8 TOTAL ITERATIONS
  MAXIMUM CONCENTRATION CHANGES FOR EACH ITERATION:
  MAX. CHANGE LAYER,ROW,COL MAX. CHANGE LAYER,ROW,COL MAX. CHANGE LAYER,ROW,COL MAX. CHANGE LAYER,ROW,COL MAX. CHANGE LAYER,ROW,COL
 ------------------------------------------------------------------------------------------------------------------------------------
   0.5488E-01 ( 20,  1, 87)  0.4349E-02 ( 19,  1, 89)  0.2117E-02 ( 18,  1, 86)  0.4239E-03 ( 20,  1, 89)  0.1002E-03 ( 16,  1, 89)
   0.1423E-04 ( 23,  1, 87)  0.1502E-04 ( 16,  1, 90)  0.7994E-06 ( 17,  1, 90)
 
 SOLVING FOR HEAD 


     2 CALLS TO PCG ROUTINE FOR TIME STEP   1 IN STRESS PERIOD    1
     8 TOTAL ITERATIONS

 MAXIMUM HEAD CHANGE FOR EACH ITERATION (1 INDICATES THE FIRST INNER ITERATION):

    HEAD CHANGE    HEAD CHANGE    HEAD CHANGE    HEAD CHANGE    HEAD CHANGE 
   LAYER,ROW,COL  LAYER,ROW,COL  LAYER,ROW,COL  LAYER,ROW,COL  LAYER,ROW,COL
 ---------------------------------------------------------------------------
  1 -0.1343E-01  0  0.3560E-02  0  0.2311E-02  0  0.1039E-01  0 -0.1016E-01
   ( 15,  1, 86)  ( 17,  1, 89)  (  8,  1, 12)  ( 11,  1, 66)  ( 11,  1, 67)
  0 -0.1330E-02  0 -0.7838E-03  1  0.6876E-03
   ( 11,  1, 43)  ( 11,  1, 59)  ( 11,  1, 57)

 MAXIMUM RESIDUAL FOR EACH ITERATION (1 INDICATES THE FIRST INNER ITERATION):

    RESIDUAL       RESIDUAL       RESIDUAL       RESIDUAL       RESIDUAL    
   LAYER,ROW,COL  LAYER,ROW,COL  LAYER,ROW,COL  LAYER,ROW,COL  LAYER,ROW,COL
 ---------------------------------------------------------------------------
  1 -0.1309E+06  0  0.9159E+05  0  0.8996E+05  0  0.3070E+05  0   5776.    
   ( 21,  1, 89)  ( 19,  1, 89)  ( 19,  1, 89)  ( 19,  1, 89)  ( 17,  1, 87)
  0  -2850.      0  -2580.      1  -2026.    
   ( 22,  1, 87)  ( 22,  1, 87)  ( 22,  1, 87)


 FLOW MODEL IS TRANSIENT
 FLOW MODEL CONTAINS CONSTANT-HEAD CELLS


 MAXIMUM STEPSIZE DURING WHICH ANY PARTICLE CANNOT MOVE MORE THAN ONE CELL
 =  13.20    (WHEN MIN. R.F.=1)  AT K=  17, I=   1, J=  90

 MAXIMUM STEPSIZE WHICH MEETS STABILITY CRITERION OF THE ADVECTION TERM
 (FOR PURE FINITE-DIFFERENCE OPTION, MIXELM=0) 
 =  8.002    (WHEN MIN. R.F.=1)  AT K=  16, I=   1, J=  90


 TOTAL NUMBER OF POINT SOURCES/SINKS PRESENT IN THE FLOW MODEL =    30

 MAXIMUM STEPSIZE WHICH MEETS STABILITY CRITERION OF THE SINK & SOURCE TERM
 =  12.16    (WHEN MIN. R.F.=1)  AT K=  17, I=   1, J=  91

 MAXIMUM STEPSIZE WHICH MEETS STABILITY CRITERION OF THE DISPERSION TERM
 =  4.349    (WHEN MIN. R.F.=1)  AT K=  17, I=   1, J=  90
     1 CALLS TO GCG PACKAGE FOR TRANSPORT TIME STEP 826 IN FLOW TIME STEP   1 STRESS PERIOD   1
     8 TOTAL ITERATIONS
     1 CALLS TO GCG PACKAGE FOR TRANSPORT TIME STEP 826 IN FLOW TIME STEP   1 STRESS PERIOD   1
     8 TOTAL ITERATIONS
 
 SOLVING FOR HEAD 


     2 CALLS TO PCG ROUTINE FOR TIME STEP   1 IN STRESS PERIOD    1
     9 TOTAL ITERATIONS

 MAXIMUM HEAD CHANGE FOR EACH ITERATION (1 INDICATES THE FIRST INNER ITERATION):

    HEAD CHANGE    HEAD CHANGE    HEAD CHANGE    HEAD CHANGE    HEAD CHANGE 
   LAYER,ROW,COL  LAYER,ROW,COL  LAYER,ROW,COL  LAYER,ROW,COL  LAYER,ROW,COL
 ---------------------------------------------------------------------------
  1  0.1383E-01  0  0.7600E-02  0 -0.3418E-02  0 -0.8861E-02  0  0.6510E-02
   ( 15,  1, 86)  (  8,  1, 45)  (  7,  1, 12)  (  9,  1, 46)  (  8,  1, 46)
  0 -0.3769E-02  0 -0.1322E-02  0 -0.7712E-03  1  0.6149E-03
   ( 11,  1, 67)  ( 11,  1, 55)  ( 11,  1, 70)  ( 11,  1, 59)

 MAXIMUM RESIDUAL FOR EACH ITERATION (1 INDICATES THE FIRST INNER ITERATION):

    RESIDUAL       RESIDUAL       RESIDUAL       RESIDUAL       RESIDUAL    
   LAYER,ROW,COL  LAYER,ROW,COL  LAYER,ROW,COL  LAYER,ROW,COL  LAYER,ROW,COL
 ---------------------------------------------------------------------------
  1  0.1320E+06  0 -0.9320E+05  0 -0.9228E+05  0 -0.7536E+05  0  -6081.    
   ( 21,  1, 89)  ( 19,  1, 89)  ( 19,  1, 89)  ( 19,  1, 89)  ( 17,  1, 87)
  0   2961.      0   2648.      0   1153.      1   1026.    
   ( 17,  1, 88)  ( 22,  1, 87)  ( 22,  1, 87)  ( 22,  1, 87)


 FLOW MODEL IS TRANSIENT
 FLOW MODEL CONTAINS CONSTANT-HEAD CELLS


 MAXIMUM STEPSIZE DURING WHICH ANY PARTICLE CANNOT MOVE MORE THAN ONE CELL
 =  12.91    (WHEN MIN. R.F.=1)  AT K=  17, I=   1, J=  90

 MAXIMUM STEPSIZE WHICH MEETS STABILITY CRITERION OF THE ADVECTION TERM
 (FOR PURE FINITE-DIFFERENCE OPTION, MIXELM=0) 
 =  8.058    (WHEN MIN. R.F.=1)  AT K=  16, I=   1, J=  90


 TOTAL NUMBER OF POINT SOURCES/SINKS PRESENT IN THE FLOW MODEL =    30

 MAXIMUM STEPSIZE WHICH MEETS STABILITY CRITERION OF THE SINK & SOURCE TERM
 =  12.28    (WHEN MIN. R.F.=1)  AT K=  17, I=   1, J=  91

 MAXIMUM STEPSIZE WHICH MEETS STABILITY CRITERION OF THE DISPERSION TERM
 =  4.052    (WHEN MIN. R.F.=1)  AT K=  17, I=   1, J=  90
     1 CALLS TO GCG PACKAGE FOR TRANSPORT TIME STEP 827 IN FLOW TIME STEP   1 STRESS PERIOD   1
     8 TOTAL ITERATIONS
     1 CALLS TO GCG PACKAGE FOR TRANSPORT TIME STEP 827 IN FLOW TIME STEP   1 STRESS PERIOD   1
     8 TOTAL ITERATIONS
 
 SOLVING FOR HEAD 


     2 CALLS TO PCG ROUTINE FOR TIME STEP   1 IN STRESS PERIOD    1
     9 TOTAL ITERATIONS

 MAXIMUM HEAD CHANGE FOR EACH ITERATION (1 INDICATES THE FIRST INNER ITERATION):

    HEAD CHANGE    HEAD CHANGE    HEAD CHANGE    HEAD CHANGE    HEAD CHANGE 
   LAYER,ROW,COL  LAYER,ROW,COL  LAYER,ROW,COL  LAYER,ROW,COL  LAYER,ROW,COL
 ---------------------------------------------------------------------------
  1 -0.1361E-01  0  0.3953E-02  0  0.3309E-02  0  0.9379E-02  0 -0.1085E-01
   ( 15,  1, 86)  ( 17,  1, 89)  (  8,  1, 12)  ( 11,  1, 50)  ( 11,  1, 50)
  0  0.2211E-02  0  0.1024E-02  0  0.6460E-03  1 -0.4384E-03
   ( 11,  1, 50)  ( 11,  1, 65)  ( 11,  1, 56)  ( 11,  1, 64)

 MAXIMUM RESIDUAL FOR EACH ITERATION (1 INDICATES THE FIRST INNER ITERATION):

    RESIDUAL       RESIDUAL       RESIDUAL       RESIDUAL       RESIDUAL    
   LAYER,ROW,COL  LAYER,ROW,COL  LAYER,ROW,COL  LAYER,ROW,COL  LAYER,ROW,COL
 ---------------------------------------------------------------------------
  1 -0.1338E+06  0  0.9507E+05  0  0.9415E+05  0  0.2077E+05  0   4835.    
   ( 21,  1, 89)  ( 19,  1, 89)  ( 19,  1, 89)  ( 19,  1, 89)  ( 17,  1, 87)
  0  -2863.      0  -2360.      0  -814.0      1  -698.9    
   ( 22,  1, 87)  ( 22,  1, 87)  ( 22,  1, 87)  ( 22,  1, 87)


 FLOW MODEL IS TRANSIENT
 FLOW MODEL CONTAINS CONSTANT-HEAD CELLS


 MAXIMUM STEPSIZE DURING WHICH ANY PARTICLE CANNOT MOVE MORE THAN ONE CELL
 =  13.22    (WHEN MIN. R.F.=1)  AT K=  17, I=   1, J=  90

 MAXIMUM STEPSIZE WHICH MEETS STABILITY CRITERION OF THE ADVECTION TERM
 (FOR PURE FINITE-DIFFERENCE OPTION, MIXELM=0) 
 =  8.006    (WHEN MIN. R.F.=1)  AT K=  16, I=   1, J=  90


 TOTAL NUMBER OF POINT SOURCES/SINKS PRESENT IN THE FLOW MODEL =    30

 MAXIMUM STEPSIZE WHICH MEETS STABILITY CRITERION OF THE SINK & SOURCE TERM
 =  12.19    (WHEN MIN. R.F.=1)  AT K=  17, I=   1, J=  91

 MAXIMUM STEPSIZE WHICH MEETS STABILITY CRITERION OF THE DISPERSION TERM
 =  4.365    (WHEN MIN. R.F.=1)  AT K=  17, I=   1, J=  90
     1 CALLS TO GCG PACKAGE FOR TRANSPORT TIME STEP 828 IN FLOW TIME STEP   1 STRESS PERIOD   1
     7 TOTAL ITERATIONS
     1 CALLS TO GCG PACKAGE FOR TRANSPORT TIME STEP 828 IN FLOW TIME STEP   1 STRESS PERIOD   1
     8 TOTAL ITERATIONS
 
 SOLVING FOR HEAD 


     2 CALLS TO PCG ROUTINE FOR TIME STEP   1 IN STRESS PERIOD    1
     9 TOTAL ITERATIONS

 MAXIMUM HEAD CHANGE FOR EACH ITERATION (1 INDICATES THE FIRST INNER ITERATION):

    HEAD CHANGE    HEAD CHANGE    HEAD CHANGE    HEAD CHANGE    HEAD CHANGE 
   LAYER,ROW,COL  LAYER,ROW,COL  LAYER,ROW,COL  LAYER,ROW,COL  LAYER,ROW,COL
 ---------------------------------------------------------------------------
  1  0.1333E-01  0 -0.3697E-02  0 -0.2964E-02  0 -0.7539E-02  0  0.8855E-02
   ( 15,  1, 86)  ( 17,  1, 89)  (  7,  1, 12)  (  9,  1, 46)  (  6,  1, 45)
  0  0.1889E-02  0 -0.1217E-02  0 -0.7711E-03  1  0.6364E-03
   ( 11,  1, 49)  ( 11,  1, 49)  ( 11,  1, 63)  ( 11,  1, 70)

 MAXIMUM RESIDUAL FOR EACH ITERATION (1 INDICATES THE FIRST INNER ITERATION):

    RESIDUAL       RESIDUAL       RESIDUAL       RESIDUAL       RESIDUAL    
   LAYER,ROW,COL  LAYER,ROW,COL  LAYER,ROW,COL  LAYER,ROW,COL  LAYER,ROW,COL
 ---------------------------------------------------------------------------
  1  0.1342E+06  0 -0.9465E+05  0 -0.8914E+05  0 -0.3839E+05  0  -6078.    
   ( 21,  1, 89)  ( 19,  1, 89)  ( 19,  1, 89)  ( 19,  1, 89)  ( 17,  1, 87)
  0   2846.      0   2468.      0   866.6      1   742.9    
   ( 22,  1, 87)  ( 22,  1, 87)  ( 22,  1, 87)  ( 22,  1, 87)


 FLOW MODEL IS TRANSIENT
 FLOW MODEL CONTAINS CONSTANT-HEAD CELLS


 MAXIMUM STEPSIZE DURING WHICH ANY PARTICLE CANNOT MOVE MORE THAN ONE CELL
 =  12.85    (WHEN MIN. R.F.=1)  AT K=  17, I=   1, J=  90

 MAXIMUM STEPSIZE WHICH MEETS STABILITY CRITERION OF THE ADVECTION TERM
 (FOR PURE FINITE-DIFFERENCE OPTION, MIXELM=0) 
 =  8.035    (WHEN MIN. R.F.=1)  AT K=  16, I=   1, J=  90


 TOTAL NUMBER OF POINT SOURCES/SINKS PRESENT IN THE FLOW MODEL =    30

 MAXIMUM STEPSIZE WHICH MEETS STABILITY CRITERION OF THE SINK & SOURCE TERM
 =  12.21    (WHEN MIN. R.F.=1)  AT K=  17, I=   1, J=  91

 MAXIMUM STEPSIZE WHICH MEETS STABILITY CRITERION OF THE DISPERSION TERM
 =  4.027    (WHEN MIN. R.F.=1)  AT K=  17, I=   1, J=  90
     1 CALLS TO GCG PACKAGE FOR TRANSPORT TIME STEP 829 IN FLOW TIME STEP   1 STRESS PERIOD   1
     8 TOTAL ITERATIONS
     1 CALLS TO GCG PACKAGE FOR TRANSPORT TIME STEP 829 IN FLOW TIME STEP   1 STRESS PERIOD   1
     8 TOTAL ITERATIONS
 
 SOLVING FOR HEAD 


     2 CALLS TO PCG ROUTINE FOR TIME STEP   1 IN STRESS PERIOD    1
     9 TOTAL ITERATIONS

 MAXIMUM HEAD CHANGE FOR EACH ITERATION (1 INDICATES THE FIRST INNER ITERATION):

    HEAD CHANGE    HEAD CHANGE    HEAD CHANGE    HEAD CHANGE    HEAD CHANGE 
   LAYER,ROW,COL  LAYER,ROW,COL  LAYER,ROW,COL  LAYER,ROW,COL  LAYER,ROW,COL
 ---------------------------------------------------------------------------
  1 -0.1347E-01  0  0.3701E-02  0  0.2536E-02  0  0.1265E-01  0 -0.1320E-01
   ( 15,  1, 86)  ( 17,  1, 89)  (  8,  1, 12)  ( 11,  1, 52)  ( 11,  1, 52)
  0  0.1718E-02  0  0.1022E-02  0  0.7147E-03  1 -0.4496E-03
   ( 11,  1, 50)  ( 11,  1, 65)  ( 11,  1, 58)  ( 11,  1, 54)

 MAXIMUM RESIDUAL FOR EACH ITERATION (1 INDICATES THE FIRST INNER ITERATION):

    RESIDUAL       RESIDUAL       RESIDUAL       RESIDUAL       RESIDUAL    
   LAYER,ROW,COL  LAYER,ROW,COL  LAYER,ROW,COL  LAYER,ROW,COL  LAYER,ROW,COL
 ---------------------------------------------------------------------------
  1 -0.1320E+06  0  0.9245E+05  0  0.9125E+05  0  0.2696E+05  0   5341.    
   ( 21,  1, 89)  ( 19,  1, 89)  ( 19,  1, 89)  ( 19,  1, 89)  ( 17,  1, 87)
  0  -2851.      0  -2393.      0  -833.1      1  -721.2    
   ( 22,  1, 87)  ( 22,  1, 87)  ( 22,  1, 87)  ( 22,  1, 87)


 FLOW MODEL IS TRANSIENT
 FLOW MODEL CONTAINS CONSTANT-HEAD CELLS


 MAXIMUM STEPSIZE DURING WHICH ANY PARTICLE CANNOT MOVE MORE THAN ONE CELL
 =  13.21    (WHEN MIN. R.F.=1)  AT K=  17, I=   1, J=  90

 MAXIMUM STEPSIZE WHICH MEETS STABILITY CRITERION OF THE ADVECTION TERM
 (FOR PURE FINITE-DIFFERENCE OPTION, MIXELM=0) 
 =  8.002    (WHEN MIN. R.F.=1)  AT K=  16, I=   1, J=  90


 TOTAL NUMBER OF POINT SOURCES/SINKS PRESENT IN THE FLOW MODEL =    30

 MAXIMUM STEPSIZE WHICH MEETS STABILITY CRITERION OF THE SINK & SOURCE TERM
 =  12.17    (WHEN MIN. R.F.=1)  AT K=  17, I=   1, J=  91

 MAXIMUM STEPSIZE WHICH MEETS STABILITY CRITERION OF THE DISPERSION TERM
 =  4.356    (WHEN MIN. R.F.=1)  AT K=  17, I=   1, J=  90
     1 CALLS TO GCG PACKAGE FOR TRANSPORT TIME STEP 830 IN FLOW TIME STEP   1 STRESS PERIOD   1
     7 TOTAL ITERATIONS
  MAXIMUM CONCENTRATION CHANGES FOR EACH ITERATION:
  MAX. CHANGE LAYER,ROW,COL MAX. CHANGE LAYER,ROW,COL MAX. CHANGE LAYER,ROW,COL MAX. CHANGE LAYER,ROW,COL MAX. CHANGE LAYER,ROW,COL
 ------------------------------------------------------------------------------------------------------------------------------------
   0.4936E-01 ( 20,  1, 87)  0.3315E-02 ( 19,  1, 87)  0.2240E-02 ( 18,  1, 87)  0.2174E-03 ( 16,  1, 88)  0.1412E-03 ( 16,  1, 89)
   0.3022E-04 ( 16,  1, 90)  0.1284E-06 ( 21,  1, 78)
     1 CALLS TO GCG PACKAGE FOR TRANSPORT TIME STEP 830 IN FLOW TIME STEP   1 STRESS PERIOD   1
     8 TOTAL ITERATIONS
  MAXIMUM CONCENTRATION CHANGES FOR EACH ITERATION:
  MAX. CHANGE LAYER,ROW,COL MAX. CHANGE LAYER,ROW,COL MAX. CHANGE LAYER,ROW,COL MAX. CHANGE LAYER,ROW,COL MAX. CHANGE LAYER,ROW,COL
 ------------------------------------------------------------------------------------------------------------------------------------
   0.5099E-01 ( 20,  1, 87)  0.3351E-02 ( 19,  1, 87)  0.2254E-02 ( 18,  1, 87)  0.2131E-03 ( 16,  1, 88)  0.1317E-03 ( 16,  1, 89)
   0.3183E-04 ( 16,  1, 90)  0.4579E-05 ( 17,  1, 90)  0.5329E-06 ( 16,  1, 89)



 >>>>>>>>>>>>>>>>>>>>>>>>>>>>>>>>>>>>>>>>>>>>>>>>>>>>>>>FOR COMPONENT NO. 01<<<<<<<<<<<<<<<<<<<<<<<<<<<<<<<<<<<<<<<<<<<<<<<<<<<<<<<


                                            -------------------------------------------
                                                      TRANSPORT STEP NO.  830
                                            -------------------------------------------

 TOTAL ELAPSED TIME SINCE BEGINNING OF SIMULATION =   41500.00    D   
 .....................................................................

                     CUMMULATIVE MASS BUDGETS AT END OF TRANSPORT STEP  830, TIME STEP    1, STRESS PERIOD    1
                     ------------------------------------------------------------------------------------------

                                                             IN                           OUT
                                                      ----------------             ----------------
                               CONSTANT CONCENTRATION:    0.000000                    0.000000    
                                        CONSTANT HEAD:   0.1641981E+10              -0.1641766E+10
                                                WELLS:    0.000000                    0.000000    
                                             RECHARGE:    0.000000                    0.000000    
                               1ST/0TH ORDER REACTION:    0.000000                    0.000000    
                                MASS STORAGE (SOLUTE):   0.2295126E+09              -0.2297276E+09
                            ---------------------------------------------------------------------------
                                              [TOTAL]:   0.1871495E+10 KG           -0.1871495E+10 KG  

                                                          NET (IN - OUT):   -353.4327    
                                                   DISCREPANCY (PERCENT):  -0.1888505E-04



 >>>>>>>>>>>>>>>>>>>>>>>>>>>>>>>>>>>>>>>>>>>>>>>>>>>>>>>FOR COMPONENT NO. 02<<<<<<<<<<<<<<<<<<<<<<<<<<<<<<<<<<<<<<<<<<<<<<<<<<<<<<<


                                            -------------------------------------------
                                                      TRANSPORT STEP NO.  830
                                            -------------------------------------------

 TOTAL ELAPSED TIME SINCE BEGINNING OF SIMULATION =   41500.00    D   
 .....................................................................

                     CUMMULATIVE MASS BUDGETS AT END OF TRANSPORT STEP  830, TIME STEP    1, STRESS PERIOD    1
                     ------------------------------------------------------------------------------------------

                                                             IN                           OUT
                                                      ----------------             ----------------
                               CONSTANT CONCENTRATION:    0.000000                    0.000000    
                                        CONSTANT HEAD:    0.000000                  -0.3473209E+12
                                                WELLS:    0.000000                    0.000000    
                                             RECHARGE:    0.000000                    0.000000    
                               1ST/0TH ORDER REACTION:   0.6868250E+12                0.000000    
                                MASS STORAGE (SOLUTE):   0.1326475E+12              -0.4721517E+12
                            ---------------------------------------------------------------------------
                                              [TOTAL]:   0.8194743E+12 KG           -0.8194744E+12 KG  

                                                          NET (IN - OUT):   -112348.5    
                                                   DISCREPANCY (PERCENT):  -0.1370982E-04
 
 SOLVING FOR HEAD 


     2 CALLS TO PCG ROUTINE FOR TIME STEP   1 IN STRESS PERIOD    1
     9 TOTAL ITERATIONS

 MAXIMUM HEAD CHANGE FOR EACH ITERATION (1 INDICATES THE FIRST INNER ITERATION):

    HEAD CHANGE    HEAD CHANGE    HEAD CHANGE    HEAD CHANGE    HEAD CHANGE 
   LAYER,ROW,COL  LAYER,ROW,COL  LAYER,ROW,COL  LAYER,ROW,COL  LAYER,ROW,COL
 ---------------------------------------------------------------------------
  1  0.1346E-01  0 -0.3667E-02  0 -0.2521E-02  0 -0.7885E-02  0  0.8516E-02
   ( 15,  1, 86)  ( 17,  1, 89)  (  7,  1, 12)  (  7,  1, 45)  (  6,  1, 45)
  0  0.1954E-02  0 -0.1277E-02  0 -0.7456E-03  1  0.7151E-03
   ( 11,  1, 49)  ( 11,  1, 49)  ( 11,  1, 60)  ( 11,  1, 59)

 MAXIMUM RESIDUAL FOR EACH ITERATION (1 INDICATES THE FIRST INNER ITERATION):

    RESIDUAL       RESIDUAL       RESIDUAL       RESIDUAL       RESIDUAL    
   LAYER,ROW,COL  LAYER,ROW,COL  LAYER,ROW,COL  LAYER,ROW,COL  LAYER,ROW,COL
 ---------------------------------------------------------------------------
  1  0.1313E+06  0 -0.9202E+05  0 -0.8881E+05  0 -0.3741E+05  0  -5970.    
   ( 21,  1, 89)  ( 19,  1, 89)  ( 19,  1, 89)  ( 19,  1, 89)  ( 17,  1, 87)
  0   2889.      0   2496.      0   864.3      1   738.7    
   ( 22,  1, 87)  ( 22,  1, 87)  ( 22,  1, 87)  ( 22,  1, 87)


 FLOW MODEL IS TRANSIENT
 FLOW MODEL CONTAINS CONSTANT-HEAD CELLS


 MAXIMUM STEPSIZE DURING WHICH ANY PARTICLE CANNOT MOVE MORE THAN ONE CELL
 =  12.86    (WHEN MIN. R.F.=1)  AT K=  17, I=   1, J=  90

 MAXIMUM STEPSIZE WHICH MEETS STABILITY CRITERION OF THE ADVECTION TERM
 (FOR PURE FINITE-DIFFERENCE OPTION, MIXELM=0) 
 =  8.036    (WHEN MIN. R.F.=1)  AT K=  16, I=   1, J=  90


 TOTAL NUMBER OF POINT SOURCES/SINKS PRESENT IN THE FLOW MODEL =    30

 MAXIMUM STEPSIZE WHICH MEETS STABILITY CRITERION OF THE SINK & SOURCE TERM
 =  12.21    (WHEN MIN. R.F.=1)  AT K=  17, I=   1, J=  91

 MAXIMUM STEPSIZE WHICH MEETS STABILITY CRITERION OF THE DISPERSION TERM
 =  4.034    (WHEN MIN. R.F.=1)  AT K=  17, I=   1, J=  90
     1 CALLS TO GCG PACKAGE FOR TRANSPORT TIME STEP 831 IN FLOW TIME STEP   1 STRESS PERIOD   1
     8 TOTAL ITERATIONS
     1 CALLS TO GCG PACKAGE FOR TRANSPORT TIME STEP 831 IN FLOW TIME STEP   1 STRESS PERIOD   1
     8 TOTAL ITERATIONS
 
 SOLVING FOR HEAD 


     2 CALLS TO PCG ROUTINE FOR TIME STEP   1 IN STRESS PERIOD    1
     9 TOTAL ITERATIONS

 MAXIMUM HEAD CHANGE FOR EACH ITERATION (1 INDICATES THE FIRST INNER ITERATION):

    HEAD CHANGE    HEAD CHANGE    HEAD CHANGE    HEAD CHANGE    HEAD CHANGE 
   LAYER,ROW,COL  LAYER,ROW,COL  LAYER,ROW,COL  LAYER,ROW,COL  LAYER,ROW,COL
 ---------------------------------------------------------------------------
  1 -0.1349E-01  0  0.3640E-02  0  0.2407E-02  0 -0.1020E-01  0 -0.1027E-01
   ( 15,  1, 86)  ( 17,  1, 89)  (  8,  1, 12)  ( 11,  1, 59)  ( 11,  1, 50)
  0  0.2125E-02  0  0.1183E-02  0  0.6137E-03  1 -0.5177E-03
   ( 11,  1, 49)  ( 11,  1, 65)  ( 11,  1, 56)  ( 11,  1, 54)

 MAXIMUM RESIDUAL FOR EACH ITERATION (1 INDICATES THE FIRST INNER ITERATION):

    RESIDUAL       RESIDUAL       RESIDUAL       RESIDUAL       RESIDUAL    
   LAYER,ROW,COL  LAYER,ROW,COL  LAYER,ROW,COL  LAYER,ROW,COL  LAYER,ROW,COL
 ---------------------------------------------------------------------------
  1 -0.1319E+06  0  0.9268E+05  0  0.9131E+05  0  0.2407E+05  0   5075.    
   ( 21,  1, 89)  ( 19,  1, 89)  ( 19,  1, 89)  ( 19,  1, 89)  ( 17,  1, 87)
  0  -2846.      0  -2368.      0  -868.3      1  -753.6    
   ( 22,  1, 87)  ( 22,  1, 87)  ( 22,  1, 87)  ( 22,  1, 87)


 FLOW MODEL IS TRANSIENT
 FLOW MODEL CONTAINS CONSTANT-HEAD CELLS


 MAXIMUM STEPSIZE DURING WHICH ANY PARTICLE CANNOT MOVE MORE THAN ONE CELL
 =  13.20    (WHEN MIN. R.F.=1)  AT K=  17, I=   1, J=  90

 MAXIMUM STEPSIZE WHICH MEETS STABILITY CRITERION OF THE ADVECTION TERM
 (FOR PURE FINITE-DIFFERENCE OPTION, MIXELM=0) 
 =  8.001    (WHEN MIN. R.F.=1)  AT K=  16, I=   1, J=  90


 TOTAL NUMBER OF POINT SOURCES/SINKS PRESENT IN THE FLOW MODEL =    30

 MAXIMUM STEPSIZE WHICH MEETS STABILITY CRITERION OF THE SINK & SOURCE TERM
 =  12.17    (WHEN MIN. R.F.=1)  AT K=  17, I=   1, J=  91

 MAXIMUM STEPSIZE WHICH MEETS STABILITY CRITERION OF THE DISPERSION TERM
 =  4.353    (WHEN MIN. R.F.=1)  AT K=  17, I=   1, J=  90
     1 CALLS TO GCG PACKAGE FOR TRANSPORT TIME STEP 832 IN FLOW TIME STEP   1 STRESS PERIOD   1
     9 TOTAL ITERATIONS
     1 CALLS TO GCG PACKAGE FOR TRANSPORT TIME STEP 832 IN FLOW TIME STEP   1 STRESS PERIOD   1
     8 TOTAL ITERATIONS
 
 SOLVING FOR HEAD 


     2 CALLS TO PCG ROUTINE FOR TIME STEP   1 IN STRESS PERIOD    1
     9 TOTAL ITERATIONS

 MAXIMUM HEAD CHANGE FOR EACH ITERATION (1 INDICATES THE FIRST INNER ITERATION):

    HEAD CHANGE    HEAD CHANGE    HEAD CHANGE    HEAD CHANGE    HEAD CHANGE 
   LAYER,ROW,COL  LAYER,ROW,COL  LAYER,ROW,COL  LAYER,ROW,COL  LAYER,ROW,COL
 ---------------------------------------------------------------------------
  1  0.1350E-01  0 -0.3637E-02  0 -0.2351E-02  0 -0.8202E-02  0  0.8147E-02
   ( 15,  1, 86)  ( 17,  1, 89)  (  7,  1, 12)  ( 11,  1, 69)  (  8,  1, 46)
  0  0.1823E-02  0 -0.1205E-02  0 -0.8818E-03  1  0.7974E-03
   ( 11,  1, 49)  ( 11,  1, 70)  ( 11,  1, 58)  ( 11,  1, 59)

 MAXIMUM RESIDUAL FOR EACH ITERATION (1 INDICATES THE FIRST INNER ITERATION):

    RESIDUAL       RESIDUAL       RESIDUAL       RESIDUAL       RESIDUAL    
   LAYER,ROW,COL  LAYER,ROW,COL  LAYER,ROW,COL  LAYER,ROW,COL  LAYER,ROW,COL
 ---------------------------------------------------------------------------
  1  0.1311E+06  0 -0.9182E+05  0 -0.8949E+05  0 -0.3648E+05  0  -5927.    
   ( 21,  1, 89)  ( 19,  1, 89)  ( 19,  1, 89)  ( 19,  1, 89)  ( 17,  1, 87)
  0   2892.      0   2506.      0   872.8      1   748.0    
   ( 22,  1, 87)  ( 22,  1, 87)  ( 22,  1, 87)  ( 22,  1, 87)


 FLOW MODEL IS TRANSIENT
 FLOW MODEL CONTAINS CONSTANT-HEAD CELLS


 MAXIMUM STEPSIZE DURING WHICH ANY PARTICLE CANNOT MOVE MORE THAN ONE CELL
 =  12.87    (WHEN MIN. R.F.=1)  AT K=  17, I=   1, J=  90

 MAXIMUM STEPSIZE WHICH MEETS STABILITY CRITERION OF THE ADVECTION TERM
 (FOR PURE FINITE-DIFFERENCE OPTION, MIXELM=0) 
 =  8.036    (WHEN MIN. R.F.=1)  AT K=  16, I=   1, J=  90


 TOTAL NUMBER OF POINT SOURCES/SINKS PRESENT IN THE FLOW MODEL =    30

 MAXIMUM STEPSIZE WHICH MEETS STABILITY CRITERION OF THE SINK & SOURCE TERM
 =  12.21    (WHEN MIN. R.F.=1)  AT K=  17, I=   1, J=  91

 MAXIMUM STEPSIZE WHICH MEETS STABILITY CRITERION OF THE DISPERSION TERM
 =  4.035    (WHEN MIN. R.F.=1)  AT K=  17, I=   1, J=  90
     1 CALLS TO GCG PACKAGE FOR TRANSPORT TIME STEP 833 IN FLOW TIME STEP   1 STRESS PERIOD   1
     8 TOTAL ITERATIONS
     1 CALLS TO GCG PACKAGE FOR TRANSPORT TIME STEP 833 IN FLOW TIME STEP   1 STRESS PERIOD   1
     8 TOTAL ITERATIONS
 
 SOLVING FOR HEAD 


     2 CALLS TO PCG ROUTINE FOR TIME STEP   1 IN STRESS PERIOD    1
     8 TOTAL ITERATIONS

 MAXIMUM HEAD CHANGE FOR EACH ITERATION (1 INDICATES THE FIRST INNER ITERATION):

    HEAD CHANGE    HEAD CHANGE    HEAD CHANGE    HEAD CHANGE    HEAD CHANGE 
   LAYER,ROW,COL  LAYER,ROW,COL  LAYER,ROW,COL  LAYER,ROW,COL  LAYER,ROW,COL
 ---------------------------------------------------------------------------
  1 -0.1347E-01  0  0.3628E-02  0  0.2365E-02  0 -0.1324E-01  0  0.1373E-01
   ( 15,  1, 86)  ( 17,  1, 89)  (  8,  1, 12)  ( 11,  1, 58)  ( 11,  1, 58)
  0 -0.2116E-02  0  0.9257E-03  1  0.5333E-03
   ( 11,  1, 56)  ( 11,  1, 54)  ( 11,  1, 35)

 MAXIMUM RESIDUAL FOR EACH ITERATION (1 INDICATES THE FIRST INNER ITERATION):

    RESIDUAL       RESIDUAL       RESIDUAL       RESIDUAL       RESIDUAL    
   LAYER,ROW,COL  LAYER,ROW,COL  LAYER,ROW,COL  LAYER,ROW,COL  LAYER,ROW,COL
 ---------------------------------------------------------------------------
  1 -0.1315E+06  0  0.9246E+05  0  0.9100E+05  0  0.2397E+05  0   5072.    
   ( 21,  1, 89)  ( 19,  1, 89)  ( 19,  1, 89)  ( 19,  1, 89)  ( 17,  1, 87)
  0  -2848.      0  -2433.      1  -2081.    
   ( 22,  1, 87)  ( 22,  1, 87)  ( 22,  1, 87)


 FLOW MODEL IS TRANSIENT
 FLOW MODEL CONTAINS CONSTANT-HEAD CELLS


 MAXIMUM STEPSIZE DURING WHICH ANY PARTICLE CANNOT MOVE MORE THAN ONE CELL
 =  13.21    (WHEN MIN. R.F.=1)  AT K=  17, I=   1, J=  90

 MAXIMUM STEPSIZE WHICH MEETS STABILITY CRITERION OF THE ADVECTION TERM
 (FOR PURE FINITE-DIFFERENCE OPTION, MIXELM=0) 
 =  8.005    (WHEN MIN. R.F.=1)  AT K=  16, I=   1, J=  90


 TOTAL NUMBER OF POINT SOURCES/SINKS PRESENT IN THE FLOW MODEL =    30

 MAXIMUM STEPSIZE WHICH MEETS STABILITY CRITERION OF THE SINK & SOURCE TERM
 =  12.17    (WHEN MIN. R.F.=1)  AT K=  17, I=   1, J=  91

 MAXIMUM STEPSIZE WHICH MEETS STABILITY CRITERION OF THE DISPERSION TERM
 =  4.354    (WHEN MIN. R.F.=1)  AT K=  17, I=   1, J=  90
     1 CALLS TO GCG PACKAGE FOR TRANSPORT TIME STEP 834 IN FLOW TIME STEP   1 STRESS PERIOD   1
     8 TOTAL ITERATIONS
     1 CALLS TO GCG PACKAGE FOR TRANSPORT TIME STEP 834 IN FLOW TIME STEP   1 STRESS PERIOD   1
     8 TOTAL ITERATIONS
 
 SOLVING FOR HEAD 


     2 CALLS TO PCG ROUTINE FOR TIME STEP   1 IN STRESS PERIOD    1
     9 TOTAL ITERATIONS

 MAXIMUM HEAD CHANGE FOR EACH ITERATION (1 INDICATES THE FIRST INNER ITERATION):

    HEAD CHANGE    HEAD CHANGE    HEAD CHANGE    HEAD CHANGE    HEAD CHANGE 
   LAYER,ROW,COL  LAYER,ROW,COL  LAYER,ROW,COL  LAYER,ROW,COL  LAYER,ROW,COL
 ---------------------------------------------------------------------------
  1  0.1382E-01  0  0.4709E-02  0 -0.4056E-02  0  0.1026E-01  0 -0.8477E-02
   ( 15,  1, 86)  ( 11,  1, 35)  (  8,  1, 12)  (  8,  1, 42)  (  7,  1, 44)
  0 -0.3815E-02  0  0.1504E-02  0 -0.9003E-03  1  0.6807E-03
   ( 11,  1, 53)  ( 11,  1, 52)  ( 11,  1, 49)  ( 11,  1, 49)

 MAXIMUM RESIDUAL FOR EACH ITERATION (1 INDICATES THE FIRST INNER ITERATION):

    RESIDUAL       RESIDUAL       RESIDUAL       RESIDUAL       RESIDUAL    
   LAYER,ROW,COL  LAYER,ROW,COL  LAYER,ROW,COL  LAYER,ROW,COL  LAYER,ROW,COL
 ---------------------------------------------------------------------------
  1  0.1328E+06  0 -0.9408E+05  0 -0.9332E+05  0 -0.6483E+05  0  -5862.    
   ( 21,  1, 89)  ( 19,  1, 89)  ( 19,  1, 89)  ( 19,  1, 89)  ( 17,  1, 87)
  0   2761.      0   2626.      0   1539.      1   1361.    
   ( 22,  1, 87)  ( 22,  1, 87)  ( 22,  1, 87)  ( 22,  1, 87)


 FLOW MODEL IS TRANSIENT
 FLOW MODEL CONTAINS CONSTANT-HEAD CELLS


 MAXIMUM STEPSIZE DURING WHICH ANY PARTICLE CANNOT MOVE MORE THAN ONE CELL
 =  12.91    (WHEN MIN. R.F.=1)  AT K=  17, I=   1, J=  90

 MAXIMUM STEPSIZE WHICH MEETS STABILITY CRITERION OF THE ADVECTION TERM
 (FOR PURE FINITE-DIFFERENCE OPTION, MIXELM=0) 
 =  8.057    (WHEN MIN. R.F.=1)  AT K=  16, I=   1, J=  90


 TOTAL NUMBER OF POINT SOURCES/SINKS PRESENT IN THE FLOW MODEL =    30

 MAXIMUM STEPSIZE WHICH MEETS STABILITY CRITERION OF THE SINK & SOURCE TERM
 =  12.27    (WHEN MIN. R.F.=1)  AT K=  17, I=   1, J=  91

 MAXIMUM STEPSIZE WHICH MEETS STABILITY CRITERION OF THE DISPERSION TERM
 =  4.048    (WHEN MIN. R.F.=1)  AT K=  17, I=   1, J=  90
     1 CALLS TO GCG PACKAGE FOR TRANSPORT TIME STEP 835 IN FLOW TIME STEP   1 STRESS PERIOD   1
     8 TOTAL ITERATIONS
  MAXIMUM CONCENTRATION CHANGES FOR EACH ITERATION:
  MAX. CHANGE LAYER,ROW,COL MAX. CHANGE LAYER,ROW,COL MAX. CHANGE LAYER,ROW,COL MAX. CHANGE LAYER,ROW,COL MAX. CHANGE LAYER,ROW,COL
 ------------------------------------------------------------------------------------------------------------------------------------
   0.5192E-01 ( 20,  1, 87)  0.4214E-02 ( 19,  1, 89)  0.2065E-02 ( 17,  1, 86)  0.4877E-03 ( 20,  1, 89)  0.9496E-04 ( 16,  1, 89)
   0.2036E-04 ( 20,  1, 89)  0.1904E-04 ( 16,  1, 90)  0.6525E-06 ( 17,  1, 90)
     1 CALLS TO GCG PACKAGE FOR TRANSPORT TIME STEP 835 IN FLOW TIME STEP   1 STRESS PERIOD   1
     8 TOTAL ITERATIONS
  MAXIMUM CONCENTRATION CHANGES FOR EACH ITERATION:
  MAX. CHANGE LAYER,ROW,COL MAX. CHANGE LAYER,ROW,COL MAX. CHANGE LAYER,ROW,COL MAX. CHANGE LAYER,ROW,COL MAX. CHANGE LAYER,ROW,COL
 ------------------------------------------------------------------------------------------------------------------------------------
   0.5442E-01 ( 20,  1, 87)  0.4479E-02 ( 19,  1, 89)  0.2026E-02 ( 18,  1, 86)  0.4379E-03 ( 20,  1, 89)  0.9787E-04 ( 16,  1, 89)
   0.1507E-04 ( 23,  1, 87)  0.1622E-04 ( 16,  1, 90)  0.7952E-06 ( 17,  1, 90)
 
 SOLVING FOR HEAD 


     2 CALLS TO PCG ROUTINE FOR TIME STEP   1 IN STRESS PERIOD    1
     8 TOTAL ITERATIONS

 MAXIMUM HEAD CHANGE FOR EACH ITERATION (1 INDICATES THE FIRST INNER ITERATION):

    HEAD CHANGE    HEAD CHANGE    HEAD CHANGE    HEAD CHANGE    HEAD CHANGE 
   LAYER,ROW,COL  LAYER,ROW,COL  LAYER,ROW,COL  LAYER,ROW,COL  LAYER,ROW,COL
 ---------------------------------------------------------------------------
  1 -0.1372E-01  0  0.4059E-02  0  0.4308E-02  0 -0.1055E-01  0  0.1045E-01
   ( 15,  1, 86)  ( 17,  1, 89)  (  8,  1, 12)  ( 11,  1, 50)  ( 11,  1, 50)
  0  0.2241E-02  0  0.7113E-03  1  0.5111E-03
   ( 11,  1, 69)  ( 11,  1, 41)  (  7,  1, 44)

 MAXIMUM RESIDUAL FOR EACH ITERATION (1 INDICATES THE FIRST INNER ITERATION):

    RESIDUAL       RESIDUAL       RESIDUAL       RESIDUAL       RESIDUAL    
   LAYER,ROW,COL  LAYER,ROW,COL  LAYER,ROW,COL  LAYER,ROW,COL  LAYER,ROW,COL
 ---------------------------------------------------------------------------
  1 -0.1342E+06  0  0.9537E+05  0  0.9466E+05  0  0.2506E+05  0   5244.    
   ( 21,  1, 89)  ( 19,  1, 89)  ( 19,  1, 89)  ( 19,  1, 89)  ( 17,  1, 87)
  0  -2878.      0  -2588.      1  -2086.    
   ( 22,  1, 87)  ( 22,  1, 87)  ( 22,  1, 87)


 FLOW MODEL IS TRANSIENT
 FLOW MODEL CONTAINS CONSTANT-HEAD CELLS


 MAXIMUM STEPSIZE DURING WHICH ANY PARTICLE CANNOT MOVE MORE THAN ONE CELL
 =  13.23    (WHEN MIN. R.F.=1)  AT K=  17, I=   1, J=  90

 MAXIMUM STEPSIZE WHICH MEETS STABILITY CRITERION OF THE ADVECTION TERM
 (FOR PURE FINITE-DIFFERENCE OPTION, MIXELM=0) 
 =  8.008    (WHEN MIN. R.F.=1)  AT K=  16, I=   1, J=  90


 TOTAL NUMBER OF POINT SOURCES/SINKS PRESENT IN THE FLOW MODEL =    30

 MAXIMUM STEPSIZE WHICH MEETS STABILITY CRITERION OF THE SINK & SOURCE TERM
 =  12.19    (WHEN MIN. R.F.=1)  AT K=  17, I=   1, J=  91

 MAXIMUM STEPSIZE WHICH MEETS STABILITY CRITERION OF THE DISPERSION TERM
 =  4.370    (WHEN MIN. R.F.=1)  AT K=  17, I=   1, J=  90
     1 CALLS TO GCG PACKAGE FOR TRANSPORT TIME STEP 836 IN FLOW TIME STEP   1 STRESS PERIOD   1
    10 TOTAL ITERATIONS
     1 CALLS TO GCG PACKAGE FOR TRANSPORT TIME STEP 836 IN FLOW TIME STEP   1 STRESS PERIOD   1
     8 TOTAL ITERATIONS
 
 SOLVING FOR HEAD 


     2 CALLS TO PCG ROUTINE FOR TIME STEP   1 IN STRESS PERIOD    1
     9 TOTAL ITERATIONS

 MAXIMUM HEAD CHANGE FOR EACH ITERATION (1 INDICATES THE FIRST INNER ITERATION):

    HEAD CHANGE    HEAD CHANGE    HEAD CHANGE    HEAD CHANGE    HEAD CHANGE 
   LAYER,ROW,COL  LAYER,ROW,COL  LAYER,ROW,COL  LAYER,ROW,COL  LAYER,ROW,COL
 ---------------------------------------------------------------------------
  1  0.1366E-01  0  0.7999E-02  0 -0.3251E-02  0 -0.9706E-02  0  0.6618E-02
   ( 15,  1, 86)  (  8,  1, 44)  (  7,  1, 12)  (  8,  1, 45)  (  8,  1, 47)
  0 -0.3784E-02  0 -0.1425E-02  0 -0.9880E-03  1  0.8157E-03
   ( 11,  1, 65)  ( 11,  1, 50)  ( 11,  1, 70)  ( 11,  1, 70)

 MAXIMUM RESIDUAL FOR EACH ITERATION (1 INDICATES THE FIRST INNER ITERATION):

    RESIDUAL       RESIDUAL       RESIDUAL       RESIDUAL       RESIDUAL    
   LAYER,ROW,COL  LAYER,ROW,COL  LAYER,ROW,COL  LAYER,ROW,COL  LAYER,ROW,COL
 ---------------------------------------------------------------------------
  1  0.1365E+06  0 -0.9761E+05  0 -0.9656E+05  0 -0.7834E+05  0  -6194.    
   ( 21,  1, 89)  ( 19,  1, 89)  ( 19,  1, 89)  ( 19,  1, 89)  ( 17,  1, 87)
  0   2986.      0   2562.      0   1433.      1   1256.    
   ( 17,  1, 88)  ( 22,  1, 87)  ( 22,  1, 87)  ( 22,  1, 87)


 FLOW MODEL IS TRANSIENT
 FLOW MODEL CONTAINS CONSTANT-HEAD CELLS


 MAXIMUM STEPSIZE DURING WHICH ANY PARTICLE CANNOT MOVE MORE THAN ONE CELL
 =  12.88    (WHEN MIN. R.F.=1)  AT K=  17, I=   1, J=  90

 MAXIMUM STEPSIZE WHICH MEETS STABILITY CRITERION OF THE ADVECTION TERM
 (FOR PURE FINITE-DIFFERENCE OPTION, MIXELM=0) 
 =  8.052    (WHEN MIN. R.F.=1)  AT K=  16, I=   1, J=  90


 TOTAL NUMBER OF POINT SOURCES/SINKS PRESENT IN THE FLOW MODEL =    30

 MAXIMUM STEPSIZE WHICH MEETS STABILITY CRITERION OF THE SINK & SOURCE TERM
 =  12.25    (WHEN MIN. R.F.=1)  AT K=  17, I=   1, J=  91

 MAXIMUM STEPSIZE WHICH MEETS STABILITY CRITERION OF THE DISPERSION TERM
 =  4.034    (WHEN MIN. R.F.=1)  AT K=  17, I=   1, J=  90
     1 CALLS TO GCG PACKAGE FOR TRANSPORT TIME STEP 837 IN FLOW TIME STEP   1 STRESS PERIOD   1
     8 TOTAL ITERATIONS
     1 CALLS TO GCG PACKAGE FOR TRANSPORT TIME STEP 837 IN FLOW TIME STEP   1 STRESS PERIOD   1
     8 TOTAL ITERATIONS
 
 SOLVING FOR HEAD 


     2 CALLS TO PCG ROUTINE FOR TIME STEP   1 IN STRESS PERIOD    1
     9 TOTAL ITERATIONS

 MAXIMUM HEAD CHANGE FOR EACH ITERATION (1 INDICATES THE FIRST INNER ITERATION):

    HEAD CHANGE    HEAD CHANGE    HEAD CHANGE    HEAD CHANGE    HEAD CHANGE 
   LAYER,ROW,COL  LAYER,ROW,COL  LAYER,ROW,COL  LAYER,ROW,COL  LAYER,ROW,COL
 ---------------------------------------------------------------------------
  1 -0.1373E-01  0  0.4156E-02  0  0.4463E-02  0  0.1050E-01  0 -0.1237E-01
   ( 15,  1, 86)  ( 17,  1, 89)  (  8,  1, 12)  ( 11,  1, 53)  ( 11,  1, 53)
  0  0.2320E-02  0  0.1150E-02  0  0.6174E-03  1 -0.2008E-03
   ( 11,  1, 53)  ( 11,  1, 64)  ( 11,  1, 49)  ( 11,  1, 48)

 MAXIMUM RESIDUAL FOR EACH ITERATION (1 INDICATES THE FIRST INNER ITERATION):

    RESIDUAL       RESIDUAL       RESIDUAL       RESIDUAL       RESIDUAL    
   LAYER,ROW,COL  LAYER,ROW,COL  LAYER,ROW,COL  LAYER,ROW,COL  LAYER,ROW,COL
 ---------------------------------------------------------------------------
  1 -0.1346E+06  0  0.9509E+05  0  0.9442E+05  0  0.1807E+05  0  -4805.    
   ( 21,  1, 89)  ( 19,  1, 89)  ( 19,  1, 89)  ( 19,  1, 89)  ( 17,  1, 88)
  0  -2831.      0  -2444.      0  -643.0      1  -565.8    
   ( 22,  1, 87)  ( 22,  1, 87)  ( 22,  1, 87)  ( 22,  1, 87)


 FLOW MODEL IS TRANSIENT
 FLOW MODEL CONTAINS CONSTANT-HEAD CELLS


 MAXIMUM STEPSIZE DURING WHICH ANY PARTICLE CANNOT MOVE MORE THAN ONE CELL
 =  13.23    (WHEN MIN. R.F.=1)  AT K=  17, I=   1, J=  90

 MAXIMUM STEPSIZE WHICH MEETS STABILITY CRITERION OF THE ADVECTION TERM
 (FOR PURE FINITE-DIFFERENCE OPTION, MIXELM=0) 
 =  8.007    (WHEN MIN. R.F.=1)  AT K=  16, I=   1, J=  90


 TOTAL NUMBER OF POINT SOURCES/SINKS PRESENT IN THE FLOW MODEL =    30

 MAXIMUM STEPSIZE WHICH MEETS STABILITY CRITERION OF THE SINK & SOURCE TERM
 =  12.18    (WHEN MIN. R.F.=1)  AT K=  17, I=   1, J=  91

 MAXIMUM STEPSIZE WHICH MEETS STABILITY CRITERION OF THE DISPERSION TERM
 =  4.379    (WHEN MIN. R.F.=1)  AT K=  17, I=   1, J=  90
     1 CALLS TO GCG PACKAGE FOR TRANSPORT TIME STEP 838 IN FLOW TIME STEP   1 STRESS PERIOD   1
     9 TOTAL ITERATIONS
     1 CALLS TO GCG PACKAGE FOR TRANSPORT TIME STEP 838 IN FLOW TIME STEP   1 STRESS PERIOD   1
     8 TOTAL ITERATIONS
 
 SOLVING FOR HEAD 


     2 CALLS TO PCG ROUTINE FOR TIME STEP   1 IN STRESS PERIOD    1
     9 TOTAL ITERATIONS

 MAXIMUM HEAD CHANGE FOR EACH ITERATION (1 INDICATES THE FIRST INNER ITERATION):

    HEAD CHANGE    HEAD CHANGE    HEAD CHANGE    HEAD CHANGE    HEAD CHANGE 
   LAYER,ROW,COL  LAYER,ROW,COL  LAYER,ROW,COL  LAYER,ROW,COL  LAYER,ROW,COL
 ---------------------------------------------------------------------------
  1  0.1326E-01  0 -0.3821E-02  0 -0.8128E-02  0  0.4997E-02  0  0.8404E-02
   ( 15,  1, 86)  ( 17,  1, 89)  (  7,  1, 45)  (  8,  1, 12)  ( 10,  1, 50)
  0  0.1167E-02  0 -0.1013E-02  0 -0.6389E-03  1  0.5861E-03
   ( 11,  1, 39)  ( 11,  1, 68)  ( 11,  1, 62)  ( 11,  1, 70)

 MAXIMUM RESIDUAL FOR EACH ITERATION (1 INDICATES THE FIRST INNER ITERATION):

    RESIDUAL       RESIDUAL       RESIDUAL       RESIDUAL       RESIDUAL    
   LAYER,ROW,COL  LAYER,ROW,COL  LAYER,ROW,COL  LAYER,ROW,COL  LAYER,ROW,COL
 ---------------------------------------------------------------------------
  1  0.1353E+06  0 -0.9576E+05  0 -0.5881E+05  0 -0.3716E+05  0  -6141.    
   ( 21,  1, 89)  ( 19,  1, 89)  ( 19,  1, 89)  ( 19,  1, 89)  ( 17,  1, 87)
  0   2845.      0   2126.      0   794.4      1   665.9    
   ( 22,  1, 87)  ( 22,  1, 87)  ( 22,  1, 87)  ( 22,  1, 87)


 FLOW MODEL IS TRANSIENT
 FLOW MODEL CONTAINS CONSTANT-HEAD CELLS


 MAXIMUM STEPSIZE DURING WHICH ANY PARTICLE CANNOT MOVE MORE THAN ONE CELL
 =  12.85    (WHEN MIN. R.F.=1)  AT K=  17, I=   1, J=  90

 MAXIMUM STEPSIZE WHICH MEETS STABILITY CRITERION OF THE ADVECTION TERM
 (FOR PURE FINITE-DIFFERENCE OPTION, MIXELM=0) 
 =  8.035    (WHEN MIN. R.F.=1)  AT K=  16, I=   1, J=  90


 TOTAL NUMBER OF POINT SOURCES/SINKS PRESENT IN THE FLOW MODEL =    30

 MAXIMUM STEPSIZE WHICH MEETS STABILITY CRITERION OF THE SINK & SOURCE TERM
 =  12.20    (WHEN MIN. R.F.=1)  AT K=  17, I=   1, J=  91

 MAXIMUM STEPSIZE WHICH MEETS STABILITY CRITERION OF THE DISPERSION TERM
 =  4.024    (WHEN MIN. R.F.=1)  AT K=  17, I=   1, J=  90
     1 CALLS TO GCG PACKAGE FOR TRANSPORT TIME STEP 839 IN FLOW TIME STEP   1 STRESS PERIOD   1
     8 TOTAL ITERATIONS
     1 CALLS TO GCG PACKAGE FOR TRANSPORT TIME STEP 839 IN FLOW TIME STEP   1 STRESS PERIOD   1
     8 TOTAL ITERATIONS
 
 SOLVING FOR HEAD 


     2 CALLS TO PCG ROUTINE FOR TIME STEP   1 IN STRESS PERIOD    1
     9 TOTAL ITERATIONS

 MAXIMUM HEAD CHANGE FOR EACH ITERATION (1 INDICATES THE FIRST INNER ITERATION):

    HEAD CHANGE    HEAD CHANGE    HEAD CHANGE    HEAD CHANGE    HEAD CHANGE 
   LAYER,ROW,COL  LAYER,ROW,COL  LAYER,ROW,COL  LAYER,ROW,COL  LAYER,ROW,COL
 ---------------------------------------------------------------------------
  1 -0.1348E-01  0  0.3712E-02  0  0.3408E-02  0  0.9575E-02  0 -0.1048E-01
   ( 15,  1, 86)  ( 17,  1, 89)  (  8,  1, 12)  ( 11,  1, 51)  ( 11,  1, 51)
  0  0.1780E-02  0  0.1142E-02  0  0.6658E-03  1 -0.6226E-03
   ( 11,  1, 51)  ( 11,  1, 70)  ( 11,  1, 58)  ( 11,  1, 70)

 MAXIMUM RESIDUAL FOR EACH ITERATION (1 INDICATES THE FIRST INNER ITERATION):

    RESIDUAL       RESIDUAL       RESIDUAL       RESIDUAL       RESIDUAL    
   LAYER,ROW,COL  LAYER,ROW,COL  LAYER,ROW,COL  LAYER,ROW,COL  LAYER,ROW,COL
 ---------------------------------------------------------------------------
  1 -0.1330E+06  0  0.9308E+05  0  0.9222E+05  0  0.2723E+05  0   5411.    
   ( 21,  1, 89)  ( 19,  1, 89)  ( 19,  1, 89)  ( 19,  1, 89)  ( 17,  1, 87)
  0  -2825.      0  -2329.      0  -722.0      1  -604.3    
   ( 22,  1, 87)  ( 22,  1, 87)  ( 22,  1, 87)  ( 22,  1, 87)


 FLOW MODEL IS TRANSIENT
 FLOW MODEL CONTAINS CONSTANT-HEAD CELLS


 MAXIMUM STEPSIZE DURING WHICH ANY PARTICLE CANNOT MOVE MORE THAN ONE CELL
 =  13.22    (WHEN MIN. R.F.=1)  AT K=  17, I=   1, J=  90

 MAXIMUM STEPSIZE WHICH MEETS STABILITY CRITERION OF THE ADVECTION TERM
 (FOR PURE FINITE-DIFFERENCE OPTION, MIXELM=0) 
 =  8.006    (WHEN MIN. R.F.=1)  AT K=  16, I=   1, J=  90


 TOTAL NUMBER OF POINT SOURCES/SINKS PRESENT IN THE FLOW MODEL =    30

 MAXIMUM STEPSIZE WHICH MEETS STABILITY CRITERION OF THE SINK & SOURCE TERM
 =  12.17    (WHEN MIN. R.F.=1)  AT K=  17, I=   1, J=  91

 MAXIMUM STEPSIZE WHICH MEETS STABILITY CRITERION OF THE DISPERSION TERM
 =  4.367    (WHEN MIN. R.F.=1)  AT K=  17, I=   1, J=  90
     1 CALLS TO GCG PACKAGE FOR TRANSPORT TIME STEP 840 IN FLOW TIME STEP   1 STRESS PERIOD   1
     7 TOTAL ITERATIONS
  MAXIMUM CONCENTRATION CHANGES FOR EACH ITERATION:
  MAX. CHANGE LAYER,ROW,COL MAX. CHANGE LAYER,ROW,COL MAX. CHANGE LAYER,ROW,COL MAX. CHANGE LAYER,ROW,COL MAX. CHANGE LAYER,ROW,COL
 ------------------------------------------------------------------------------------------------------------------------------------
   0.4932E-01 ( 20,  1, 87)  0.3324E-02 ( 19,  1, 87)  0.2271E-02 ( 18,  1, 87)  0.2197E-03 ( 16,  1, 88)  0.1410E-03 ( 16,  1, 89)
   0.3098E-04 ( 16,  1, 90)  0.5477E-06 ( 21,  1, 78)
     1 CALLS TO GCG PACKAGE FOR TRANSPORT TIME STEP 840 IN FLOW TIME STEP   1 STRESS PERIOD   1
     8 TOTAL ITERATIONS
  MAXIMUM CONCENTRATION CHANGES FOR EACH ITERATION:
  MAX. CHANGE LAYER,ROW,COL MAX. CHANGE LAYER,ROW,COL MAX. CHANGE LAYER,ROW,COL MAX. CHANGE LAYER,ROW,COL MAX. CHANGE LAYER,ROW,COL
 ------------------------------------------------------------------------------------------------------------------------------------
   0.5068E-01 ( 20,  1, 87)  0.3337E-02 ( 19,  1, 87)  0.2269E-02 ( 18,  1, 87)  0.2143E-03 ( 16,  1, 88)  0.1311E-03 ( 16,  1, 89)
   0.3212E-04 ( 16,  1, 90)  0.4523E-05 ( 17,  1, 90)  0.5179E-06 ( 16,  1, 89)



 >>>>>>>>>>>>>>>>>>>>>>>>>>>>>>>>>>>>>>>>>>>>>>>>>>>>>>>FOR COMPONENT NO. 01<<<<<<<<<<<<<<<<<<<<<<<<<<<<<<<<<<<<<<<<<<<<<<<<<<<<<<<


                                            -------------------------------------------
                                                      TRANSPORT STEP NO.  840
                                            -------------------------------------------

 TOTAL ELAPSED TIME SINCE BEGINNING OF SIMULATION =   42000.00    D   
 .....................................................................

                     CUMMULATIVE MASS BUDGETS AT END OF TRANSPORT STEP  840, TIME STEP    1, STRESS PERIOD    1
                     ------------------------------------------------------------------------------------------

                                                             IN                           OUT
                                                      ----------------             ----------------
                               CONSTANT CONCENTRATION:    0.000000                    0.000000    
                                        CONSTANT HEAD:   0.1661744E+10              -0.1661530E+10
                                                WELLS:    0.000000                    0.000000    
                                             RECHARGE:    0.000000                    0.000000    
                               1ST/0TH ORDER REACTION:    0.000000                    0.000000    
                                MASS STORAGE (SOLUTE):   0.2322741E+09              -0.2324887E+09
                            ---------------------------------------------------------------------------
                                              [TOTAL]:   0.1894020E+10 KG           -0.1894020E+10 KG  

                                                          NET (IN - OUT):   -364.0691    
                                                   DISCREPANCY (PERCENT):  -0.1922203E-04



 >>>>>>>>>>>>>>>>>>>>>>>>>>>>>>>>>>>>>>>>>>>>>>>>>>>>>>>FOR COMPONENT NO. 02<<<<<<<<<<<<<<<<<<<<<<<<<<<<<<<<<<<<<<<<<<<<<<<<<<<<<<<


                                            -------------------------------------------
                                                      TRANSPORT STEP NO.  840
                                            -------------------------------------------

 TOTAL ELAPSED TIME SINCE BEGINNING OF SIMULATION =   42000.00    D   
 .....................................................................

                     CUMMULATIVE MASS BUDGETS AT END OF TRANSPORT STEP  840, TIME STEP    1, STRESS PERIOD    1
                     ------------------------------------------------------------------------------------------

                                                             IN                           OUT
                                                      ----------------             ----------------
                               CONSTANT CONCENTRATION:    0.000000                    0.000000    
                                        CONSTANT HEAD:    0.000000                  -0.3540990E+12
                                                WELLS:    0.000000                    0.000000    
                                             RECHARGE:    0.000000                    0.000000    
                               1ST/0TH ORDER REACTION:   0.6951000E+12                0.000000    
                                MASS STORAGE (SOLUTE):   0.1357694E+12              -0.4767706E+12
                            ---------------------------------------------------------------------------
                                              [TOTAL]:   0.8308713E+12 KG           -0.8308714E+12 KG  

                                                          NET (IN - OUT):   -114211.4    
                                                   DISCREPANCY (PERCENT):  -0.1374598E-04
 
 SOLVING FOR HEAD 


     2 CALLS TO PCG ROUTINE FOR TIME STEP   1 IN STRESS PERIOD    1
    10 TOTAL ITERATIONS

 MAXIMUM HEAD CHANGE FOR EACH ITERATION (1 INDICATES THE FIRST INNER ITERATION):

    HEAD CHANGE    HEAD CHANGE    HEAD CHANGE    HEAD CHANGE    HEAD CHANGE 
   LAYER,ROW,COL  LAYER,ROW,COL  LAYER,ROW,COL  LAYER,ROW,COL  LAYER,ROW,COL
 ---------------------------------------------------------------------------
  1  0.1346E-01  0 -0.3675E-02  0 -0.4126E-02  0 -0.7916E-02  0  0.1013E-01
   ( 15,  1, 86)  ( 17,  1, 89)  (  7,  1, 12)  ( 11,  1, 67)  ( 11,  1, 67)
  0  0.1964E-02  0 -0.1057E-02  0 -0.1047E-02  0  0.7981E-03  1  0.2837E-03
   ( 11,  1, 49)  ( 11,  1, 49)  ( 11,  1, 59)  ( 11,  1, 66)  ( 11,  1, 70)

 MAXIMUM RESIDUAL FOR EACH ITERATION (1 INDICATES THE FIRST INNER ITERATION):

    RESIDUAL       RESIDUAL       RESIDUAL       RESIDUAL       RESIDUAL    
   LAYER,ROW,COL  LAYER,ROW,COL  LAYER,ROW,COL  LAYER,ROW,COL  LAYER,ROW,COL
 ---------------------------------------------------------------------------
  1  0.1312E+06  0 -0.9163E+05  0 -0.7740E+05  0 -0.2763E+05  0  -5703.    
   ( 21,  1, 89)  ( 19,  1, 89)  ( 19,  1, 89)  ( 19,  1, 89)  ( 17,  1, 87)
  0   2895.      0   2624.      0   958.1      0   381.1      1   338.6    
   ( 22,  1, 87)  ( 22,  1, 87)  ( 22,  1, 87)  ( 22,  1, 87)  ( 22,  1, 87)


 FLOW MODEL IS TRANSIENT
 FLOW MODEL CONTAINS CONSTANT-HEAD CELLS


 MAXIMUM STEPSIZE DURING WHICH ANY PARTICLE CANNOT MOVE MORE THAN ONE CELL
 =  12.86    (WHEN MIN. R.F.=1)  AT K=  17, I=   1, J=  90

 MAXIMUM STEPSIZE WHICH MEETS STABILITY CRITERION OF THE ADVECTION TERM
 (FOR PURE FINITE-DIFFERENCE OPTION, MIXELM=0) 
 =  8.036    (WHEN MIN. R.F.=1)  AT K=  16, I=   1, J=  90


 TOTAL NUMBER OF POINT SOURCES/SINKS PRESENT IN THE FLOW MODEL =    30

 MAXIMUM STEPSIZE WHICH MEETS STABILITY CRITERION OF THE SINK & SOURCE TERM
 =  12.20    (WHEN MIN. R.F.=1)  AT K=  17, I=   1, J=  91

 MAXIMUM STEPSIZE WHICH MEETS STABILITY CRITERION OF THE DISPERSION TERM
 =  4.033    (WHEN MIN. R.F.=1)  AT K=  17, I=   1, J=  90
     1 CALLS TO GCG PACKAGE FOR TRANSPORT TIME STEP 841 IN FLOW TIME STEP   1 STRESS PERIOD   1
     8 TOTAL ITERATIONS
     1 CALLS TO GCG PACKAGE FOR TRANSPORT TIME STEP 841 IN FLOW TIME STEP   1 STRESS PERIOD   1
     8 TOTAL ITERATIONS
 
 SOLVING FOR HEAD 


     2 CALLS TO PCG ROUTINE FOR TIME STEP   1 IN STRESS PERIOD    1
     9 TOTAL ITERATIONS

 MAXIMUM HEAD CHANGE FOR EACH ITERATION (1 INDICATES THE FIRST INNER ITERATION):

    HEAD CHANGE    HEAD CHANGE    HEAD CHANGE    HEAD CHANGE    HEAD CHANGE 
   LAYER,ROW,COL  LAYER,ROW,COL  LAYER,ROW,COL  LAYER,ROW,COL  LAYER,ROW,COL
 ---------------------------------------------------------------------------
  1 -0.1338E-01  0  0.3556E-02  0  0.2322E-02  0  0.5539E-02  0 -0.7375E-02
   ( 15,  1, 86)  ( 17,  1, 89)  (  8,  1, 12)  ( 11,  1, 50)  ( 11,  1, 50)
  0  0.1890E-02  0  0.1002E-02  0  0.7531E-03  1 -0.6129E-03
   ( 11,  1, 52)  ( 11,  1, 49)  ( 11,  1, 70)  ( 11,  1, 67)

 MAXIMUM RESIDUAL FOR EACH ITERATION (1 INDICATES THE FIRST INNER ITERATION):

    RESIDUAL       RESIDUAL       RESIDUAL       RESIDUAL       RESIDUAL    
   LAYER,ROW,COL  LAYER,ROW,COL  LAYER,ROW,COL  LAYER,ROW,COL  LAYER,ROW,COL
 ---------------------------------------------------------------------------
  1 -0.1326E+06  0  0.9338E+05  0  0.9158E+05  0  0.1463E+05  0   4243.    
   ( 21,  1, 89)  ( 19,  1, 89)  ( 19,  1, 89)  ( 19,  1, 89)  ( 17,  1, 87)
  0  -2828.      0  -2083.      0  -771.9      1  -664.3    
   ( 22,  1, 87)  ( 22,  1, 87)  ( 22,  1, 87)  ( 22,  1, 87)


 FLOW MODEL IS TRANSIENT
 FLOW MODEL CONTAINS CONSTANT-HEAD CELLS


 MAXIMUM STEPSIZE DURING WHICH ANY PARTICLE CANNOT MOVE MORE THAN ONE CELL
 =  13.22    (WHEN MIN. R.F.=1)  AT K=  17, I=   1, J=  90

 MAXIMUM STEPSIZE WHICH MEETS STABILITY CRITERION OF THE ADVECTION TERM
 (FOR PURE FINITE-DIFFERENCE OPTION, MIXELM=0) 
 =  8.007    (WHEN MIN. R.F.=1)  AT K=  16, I=   1, J=  90


 TOTAL NUMBER OF POINT SOURCES/SINKS PRESENT IN THE FLOW MODEL =    30

 MAXIMUM STEPSIZE WHICH MEETS STABILITY CRITERION OF THE SINK & SOURCE TERM
 =  12.18    (WHEN MIN. R.F.=1)  AT K=  17, I=   1, J=  91

 MAXIMUM STEPSIZE WHICH MEETS STABILITY CRITERION OF THE DISPERSION TERM
 =  4.362    (WHEN MIN. R.F.=1)  AT K=  17, I=   1, J=  90
     1 CALLS TO GCG PACKAGE FOR TRANSPORT TIME STEP 842 IN FLOW TIME STEP   1 STRESS PERIOD   1
     9 TOTAL ITERATIONS
     1 CALLS TO GCG PACKAGE FOR TRANSPORT TIME STEP 842 IN FLOW TIME STEP   1 STRESS PERIOD   1
     8 TOTAL ITERATIONS
 
 SOLVING FOR HEAD 


     2 CALLS TO PCG ROUTINE FOR TIME STEP   1 IN STRESS PERIOD    1
     8 TOTAL ITERATIONS

 MAXIMUM HEAD CHANGE FOR EACH ITERATION (1 INDICATES THE FIRST INNER ITERATION):

    HEAD CHANGE    HEAD CHANGE    HEAD CHANGE    HEAD CHANGE    HEAD CHANGE 
   LAYER,ROW,COL  LAYER,ROW,COL  LAYER,ROW,COL  LAYER,ROW,COL  LAYER,ROW,COL
 ---------------------------------------------------------------------------
  1  0.1344E-01  0 -0.3523E-02  0 -0.2663E-02  0  0.8776E-02  0 -0.8542E-02
   ( 15,  1, 86)  ( 17,  1, 89)  (  8,  1, 12)  (  9,  1, 53)  (  9,  1, 53)
  0  0.1320E-02  0 -0.8648E-03  1  0.6368E-03
   ( 11,  1, 70)  ( 11,  1, 50)  ( 11,  1, 50)

 MAXIMUM RESIDUAL FOR EACH ITERATION (1 INDICATES THE FIRST INNER ITERATION):

    RESIDUAL       RESIDUAL       RESIDUAL       RESIDUAL       RESIDUAL    
   LAYER,ROW,COL  LAYER,ROW,COL  LAYER,ROW,COL  LAYER,ROW,COL  LAYER,ROW,COL
 ---------------------------------------------------------------------------
  1  0.1307E+06  0 -0.9092E+05  0 -0.8777E+05  0 -0.3741E+05  0  -5984.    
   ( 21,  1, 89)  ( 19,  1, 89)  ( 19,  1, 89)  ( 19,  1, 89)  ( 17,  1, 87)
  0   2928.      0   2408.      1   2091.    
   ( 22,  1, 87)  ( 22,  1, 87)  ( 22,  1, 87)


 FLOW MODEL IS TRANSIENT
 FLOW MODEL CONTAINS CONSTANT-HEAD CELLS


 MAXIMUM STEPSIZE DURING WHICH ANY PARTICLE CANNOT MOVE MORE THAN ONE CELL
 =  12.86    (WHEN MIN. R.F.=1)  AT K=  17, I=   1, J=  90

 MAXIMUM STEPSIZE WHICH MEETS STABILITY CRITERION OF THE ADVECTION TERM
 (FOR PURE FINITE-DIFFERENCE OPTION, MIXELM=0) 
 =  8.031    (WHEN MIN. R.F.=1)  AT K=  16, I=   1, J=  90


 TOTAL NUMBER OF POINT SOURCES/SINKS PRESENT IN THE FLOW MODEL =    30

 MAXIMUM STEPSIZE WHICH MEETS STABILITY CRITERION OF THE SINK & SOURCE TERM
 =  12.20    (WHEN MIN. R.F.=1)  AT K=  17, I=   1, J=  91

 MAXIMUM STEPSIZE WHICH MEETS STABILITY CRITERION OF THE DISPERSION TERM
 =  4.034    (WHEN MIN. R.F.=1)  AT K=  17, I=   1, J=  90
     1 CALLS TO GCG PACKAGE FOR TRANSPORT TIME STEP 843 IN FLOW TIME STEP   1 STRESS PERIOD   1
     8 TOTAL ITERATIONS
     1 CALLS TO GCG PACKAGE FOR TRANSPORT TIME STEP 843 IN FLOW TIME STEP   1 STRESS PERIOD   1
     8 TOTAL ITERATIONS
 
 SOLVING FOR HEAD 


     2 CALLS TO PCG ROUTINE FOR TIME STEP   1 IN STRESS PERIOD    1
     8 TOTAL ITERATIONS

 MAXIMUM HEAD CHANGE FOR EACH ITERATION (1 INDICATES THE FIRST INNER ITERATION):

    HEAD CHANGE    HEAD CHANGE    HEAD CHANGE    HEAD CHANGE    HEAD CHANGE 
   LAYER,ROW,COL  LAYER,ROW,COL  LAYER,ROW,COL  LAYER,ROW,COL  LAYER,ROW,COL
 ---------------------------------------------------------------------------
  1 -0.1370E-01  0  0.4719E-02  0  0.3982E-02  0 -0.1333E-01  0  0.1120E-01
   ( 15,  1, 86)  ( 11,  1, 50)  (  8,  1, 12)  ( 11,  1, 50)  ( 11,  1, 50)
  0 -0.1998E-02  0  0.9017E-03  1  0.6204E-03
   ( 11,  1, 56)  ( 11,  1, 56)  ( 11,  1, 49)

 MAXIMUM RESIDUAL FOR EACH ITERATION (1 INDICATES THE FIRST INNER ITERATION):

    RESIDUAL       RESIDUAL       RESIDUAL       RESIDUAL       RESIDUAL    
   LAYER,ROW,COL  LAYER,ROW,COL  LAYER,ROW,COL  LAYER,ROW,COL  LAYER,ROW,COL
 ---------------------------------------------------------------------------
  1 -0.1348E+06  0  0.9597E+05  0  0.9518E+05  0  0.5405E+05  0   5363.    
   ( 21,  1, 89)  ( 19,  1, 89)  ( 19,  1, 89)  ( 19,  1, 89)  ( 17,  1, 87)
  0  -2799.      0  -2574.      1  -1927.    
   ( 22,  1, 87)  ( 22,  1, 87)  ( 22,  1, 87)


 FLOW MODEL IS TRANSIENT
 FLOW MODEL CONTAINS CONSTANT-HEAD CELLS


 MAXIMUM STEPSIZE DURING WHICH ANY PARTICLE CANNOT MOVE MORE THAN ONE CELL
 =  13.15    (WHEN MIN. R.F.=1)  AT K=  17, I=   1, J=  90

 MAXIMUM STEPSIZE WHICH MEETS STABILITY CRITERION OF THE ADVECTION TERM
 (FOR PURE FINITE-DIFFERENCE OPTION, MIXELM=0) 
 =  7.977    (WHEN MIN. R.F.=1)  AT K=  16, I=   1, J=  90


 TOTAL NUMBER OF POINT SOURCES/SINKS PRESENT IN THE FLOW MODEL =    30

 MAXIMUM STEPSIZE WHICH MEETS STABILITY CRITERION OF THE SINK & SOURCE TERM
 =  12.08    (WHEN MIN. R.F.=1)  AT K=  17, I=   1, J=  91

 MAXIMUM STEPSIZE WHICH MEETS STABILITY CRITERION OF THE DISPERSION TERM
 =  4.331    (WHEN MIN. R.F.=1)  AT K=  17, I=   1, J=  90
     1 CALLS TO GCG PACKAGE FOR TRANSPORT TIME STEP 844 IN FLOW TIME STEP   1 STRESS PERIOD   1
     8 TOTAL ITERATIONS
     1 CALLS TO GCG PACKAGE FOR TRANSPORT TIME STEP 844 IN FLOW TIME STEP   1 STRESS PERIOD   1
     8 TOTAL ITERATIONS
 
 SOLVING FOR HEAD 


     2 CALLS TO PCG ROUTINE FOR TIME STEP   1 IN STRESS PERIOD    1
     9 TOTAL ITERATIONS

 MAXIMUM HEAD CHANGE FOR EACH ITERATION (1 INDICATES THE FIRST INNER ITERATION):

    HEAD CHANGE    HEAD CHANGE    HEAD CHANGE    HEAD CHANGE    HEAD CHANGE 
   LAYER,ROW,COL  LAYER,ROW,COL  LAYER,ROW,COL  LAYER,ROW,COL  LAYER,ROW,COL
 ---------------------------------------------------------------------------
  1  0.1384E-01  0  0.7972E-02  0 -0.4671E-02  0  0.9825E-02  0 -0.6132E-02
   ( 15,  1, 86)  ( 11,  1, 49)  (  8,  1, 12)  (  7,  1, 51)  ( 10,  1, 52)
  0 -0.3232E-02  0 -0.1341E-02  0 -0.7411E-03  1  0.6383E-03
   ( 11,  1, 55)  ( 11,  1, 49)  ( 11,  1, 63)  ( 11,  1, 62)

 MAXIMUM RESIDUAL FOR EACH ITERATION (1 INDICATES THE FIRST INNER ITERATION):

    RESIDUAL       RESIDUAL       RESIDUAL       RESIDUAL       RESIDUAL    
   LAYER,ROW,COL  LAYER,ROW,COL  LAYER,ROW,COL  LAYER,ROW,COL  LAYER,ROW,COL
 ---------------------------------------------------------------------------
  1  0.1344E+06  0 -0.9609E+05  0 -0.9541E+05  0 -0.7878E+05  0   6302.    
   ( 21,  1, 89)  ( 19,  1, 89)  ( 19,  1, 89)  ( 19,  1, 89)  ( 17,  1, 88)
  0   2964.      0   2546.      0   992.3      1   876.8    
   ( 17,  1, 88)  ( 22,  1, 87)  ( 22,  1, 87)  ( 22,  1, 87)


 FLOW MODEL IS TRANSIENT
 FLOW MODEL CONTAINS CONSTANT-HEAD CELLS


 MAXIMUM STEPSIZE DURING WHICH ANY PARTICLE CANNOT MOVE MORE THAN ONE CELL
 =  12.86    (WHEN MIN. R.F.=1)  AT K=  17, I=   1, J=  90

 MAXIMUM STEPSIZE WHICH MEETS STABILITY CRITERION OF THE ADVECTION TERM
 (FOR PURE FINITE-DIFFERENCE OPTION, MIXELM=0) 
 =  8.042    (WHEN MIN. R.F.=1)  AT K=  16, I=   1, J=  90


 TOTAL NUMBER OF POINT SOURCES/SINKS PRESENT IN THE FLOW MODEL =    30

 MAXIMUM STEPSIZE WHICH MEETS STABILITY CRITERION OF THE SINK & SOURCE TERM
 =  12.20    (WHEN MIN. R.F.=1)  AT K=  17, I=   1, J=  91

 MAXIMUM STEPSIZE WHICH MEETS STABILITY CRITERION OF THE DISPERSION TERM
 =  4.028    (WHEN MIN. R.F.=1)  AT K=  17, I=   1, J=  90
     1 CALLS TO GCG PACKAGE FOR TRANSPORT TIME STEP 845 IN FLOW TIME STEP   1 STRESS PERIOD   1
     8 TOTAL ITERATIONS
  MAXIMUM CONCENTRATION CHANGES FOR EACH ITERATION:
  MAX. CHANGE LAYER,ROW,COL MAX. CHANGE LAYER,ROW,COL MAX. CHANGE LAYER,ROW,COL MAX. CHANGE LAYER,ROW,COL MAX. CHANGE LAYER,ROW,COL
 ------------------------------------------------------------------------------------------------------------------------------------
   0.5211E-01 ( 20,  1, 87)  0.4289E-02 ( 19,  1, 89)  0.2030E-02 ( 17,  1, 86)  0.4705E-03 ( 20,  1, 89)  0.8851E-04 ( 16,  1, 89)
   0.2077E-04 ( 20,  1, 89)  0.2115E-04 ( 16,  1, 90)  0.6695E-06 ( 17,  1, 90)
     1 CALLS TO GCG PACKAGE FOR TRANSPORT TIME STEP 845 IN FLOW TIME STEP   1 STRESS PERIOD   1
     8 TOTAL ITERATIONS
  MAXIMUM CONCENTRATION CHANGES FOR EACH ITERATION:
  MAX. CHANGE LAYER,ROW,COL MAX. CHANGE LAYER,ROW,COL MAX. CHANGE LAYER,ROW,COL MAX. CHANGE LAYER,ROW,COL MAX. CHANGE LAYER,ROW,COL
 ------------------------------------------------------------------------------------------------------------------------------------
   0.5416E-01 ( 20,  1, 87)  0.4530E-02 ( 19,  1, 89)  0.1958E-02 ( 18,  1, 86)  0.4260E-03 ( 20,  1, 89)  0.9688E-04 ( 16,  1, 89)
   0.1506E-04 ( 23,  1, 87)  0.1777E-04 ( 16,  1, 90)  0.7554E-06 ( 17,  1, 90)
 
 SOLVING FOR HEAD 


     2 CALLS TO PCG ROUTINE FOR TIME STEP   1 IN STRESS PERIOD    1
     8 TOTAL ITERATIONS

 MAXIMUM HEAD CHANGE FOR EACH ITERATION (1 INDICATES THE FIRST INNER ITERATION):

    HEAD CHANGE    HEAD CHANGE    HEAD CHANGE    HEAD CHANGE    HEAD CHANGE 
   LAYER,ROW,COL  LAYER,ROW,COL  LAYER,ROW,COL  LAYER,ROW,COL  LAYER,ROW,COL
 ---------------------------------------------------------------------------
  1 -0.1345E-01  0  0.3915E-02  0  0.3305E-02  0 -0.9655E-02  0  0.9463E-02
   ( 15,  1, 86)  ( 17,  1, 89)  (  8,  1, 12)  ( 11,  1, 61)  ( 11,  1, 61)
  0 -0.1282E-02  0  0.6717E-03  1  0.6592E-03
   ( 11,  1, 35)  ( 11,  1, 38)  ( 11,  1, 61)

 MAXIMUM RESIDUAL FOR EACH ITERATION (1 INDICATES THE FIRST INNER ITERATION):

    RESIDUAL       RESIDUAL       RESIDUAL       RESIDUAL       RESIDUAL    
   LAYER,ROW,COL  LAYER,ROW,COL  LAYER,ROW,COL  LAYER,ROW,COL  LAYER,ROW,COL
 ---------------------------------------------------------------------------
  1 -0.1305E+06  0  0.9185E+05  0  0.9099E+05  0  0.2100E+05  0   4961.    
   ( 21,  1, 89)  ( 19,  1, 89)  ( 19,  1, 89)  ( 19,  1, 89)  ( 17,  1, 87)
  0  -2855.      0  -2489.      1  -2101.    
   ( 22,  1, 87)  ( 22,  1, 87)  ( 22,  1, 87)


 FLOW MODEL IS TRANSIENT
 FLOW MODEL CONTAINS CONSTANT-HEAD CELLS


 MAXIMUM STEPSIZE DURING WHICH ANY PARTICLE CANNOT MOVE MORE THAN ONE CELL
 =  13.25    (WHEN MIN. R.F.=1)  AT K=  17, I=   1, J=  90

 MAXIMUM STEPSIZE WHICH MEETS STABILITY CRITERION OF THE ADVECTION TERM
 (FOR PURE FINITE-DIFFERENCE OPTION, MIXELM=0) 
 =  8.015    (WHEN MIN. R.F.=1)  AT K=  16, I=   1, J=  90


 TOTAL NUMBER OF POINT SOURCES/SINKS PRESENT IN THE FLOW MODEL =    30

 MAXIMUM STEPSIZE WHICH MEETS STABILITY CRITERION OF THE SINK & SOURCE TERM
 =  12.18    (WHEN MIN. R.F.=1)  AT K=  17, I=   1, J=  91

 MAXIMUM STEPSIZE WHICH MEETS STABILITY CRITERION OF THE DISPERSION TERM
 =  4.382    (WHEN MIN. R.F.=1)  AT K=  17, I=   1, J=  90
     1 CALLS TO GCG PACKAGE FOR TRANSPORT TIME STEP 846 IN FLOW TIME STEP   1 STRESS PERIOD   1
     7 TOTAL ITERATIONS
     1 CALLS TO GCG PACKAGE FOR TRANSPORT TIME STEP 846 IN FLOW TIME STEP   1 STRESS PERIOD   1
     8 TOTAL ITERATIONS
 
 SOLVING FOR HEAD 


     2 CALLS TO PCG ROUTINE FOR TIME STEP   1 IN STRESS PERIOD    1
     9 TOTAL ITERATIONS

 MAXIMUM HEAD CHANGE FOR EACH ITERATION (1 INDICATES THE FIRST INNER ITERATION):

    HEAD CHANGE    HEAD CHANGE    HEAD CHANGE    HEAD CHANGE    HEAD CHANGE 
   LAYER,ROW,COL  LAYER,ROW,COL  LAYER,ROW,COL  LAYER,ROW,COL  LAYER,ROW,COL
 ---------------------------------------------------------------------------
  1  0.1365E-01  0  0.6395E-02  0 -0.3619E-02  0 -0.9016E-02  0  0.6990E-02
   ( 15,  1, 86)  (  5,  1, 43)  (  7,  1, 12)  (  8,  1, 46)  ( 10,  1, 50)
  0 -0.4244E-02  0 -0.1659E-02  0 -0.5713E-03  1 -0.6766E-03
   ( 11,  1, 69)  ( 11,  1, 61)  ( 11,  1, 65)  ( 11,  1, 55)

 MAXIMUM RESIDUAL FOR EACH ITERATION (1 INDICATES THE FIRST INNER ITERATION):

    RESIDUAL       RESIDUAL       RESIDUAL       RESIDUAL       RESIDUAL    
   LAYER,ROW,COL  LAYER,ROW,COL  LAYER,ROW,COL  LAYER,ROW,COL  LAYER,ROW,COL
 ---------------------------------------------------------------------------
  1  0.1356E+06  0 -0.9626E+05  0 -0.9537E+05  0 -0.7401E+05  0  -6047.    
   ( 21,  1, 89)  ( 19,  1, 89)  ( 19,  1, 89)  ( 19,  1, 89)  ( 17,  1, 87)
  0   2866.      0   2564.      0   1094.      1   979.0    
   ( 17,  1, 88)  ( 22,  1, 87)  ( 22,  1, 87)  ( 22,  1, 87)


 FLOW MODEL IS TRANSIENT
 FLOW MODEL CONTAINS CONSTANT-HEAD CELLS


 MAXIMUM STEPSIZE DURING WHICH ANY PARTICLE CANNOT MOVE MORE THAN ONE CELL
 =  12.91    (WHEN MIN. R.F.=1)  AT K=  17, I=   1, J=  90

 MAXIMUM STEPSIZE WHICH MEETS STABILITY CRITERION OF THE ADVECTION TERM
 (FOR PURE FINITE-DIFFERENCE OPTION, MIXELM=0) 
 =  8.062    (WHEN MIN. R.F.=1)  AT K=  16, I=   1, J=  90


 TOTAL NUMBER OF POINT SOURCES/SINKS PRESENT IN THE FLOW MODEL =    30

 MAXIMUM STEPSIZE WHICH MEETS STABILITY CRITERION OF THE SINK & SOURCE TERM
 =  12.28    (WHEN MIN. R.F.=1)  AT K=  17, I=   1, J=  91

 MAXIMUM STEPSIZE WHICH MEETS STABILITY CRITERION OF THE DISPERSION TERM
 =  4.049    (WHEN MIN. R.F.=1)  AT K=  17, I=   1, J=  90
     1 CALLS TO GCG PACKAGE FOR TRANSPORT TIME STEP 847 IN FLOW TIME STEP   1 STRESS PERIOD   1
     8 TOTAL ITERATIONS
     1 CALLS TO GCG PACKAGE FOR TRANSPORT TIME STEP 847 IN FLOW TIME STEP   1 STRESS PERIOD   1
     8 TOTAL ITERATIONS
 
 SOLVING FOR HEAD 


     2 CALLS TO PCG ROUTINE FOR TIME STEP   1 IN STRESS PERIOD    1
     9 TOTAL ITERATIONS

 MAXIMUM HEAD CHANGE FOR EACH ITERATION (1 INDICATES THE FIRST INNER ITERATION):

    HEAD CHANGE    HEAD CHANGE    HEAD CHANGE    HEAD CHANGE    HEAD CHANGE 
   LAYER,ROW,COL  LAYER,ROW,COL  LAYER,ROW,COL  LAYER,ROW,COL  LAYER,ROW,COL
 ---------------------------------------------------------------------------
  1 -0.1369E-01  0  0.4094E-02  0  0.3949E-02  0  0.9959E-02  0 -0.1157E-01
   ( 15,  1, 86)  ( 17,  1, 89)  (  8,  1, 12)  ( 11,  1, 55)  ( 11,  1, 55)
  0  0.2072E-02  0  0.1046E-02  0  0.8273E-03  1 -0.5566E-03
   ( 11,  1, 55)  ( 11,  1, 70)  ( 11,  1, 49)  ( 11,  1, 70)

 MAXIMUM RESIDUAL FOR EACH ITERATION (1 INDICATES THE FIRST INNER ITERATION):

    RESIDUAL       RESIDUAL       RESIDUAL       RESIDUAL       RESIDUAL    
   LAYER,ROW,COL  LAYER,ROW,COL  LAYER,ROW,COL  LAYER,ROW,COL  LAYER,ROW,COL
 ---------------------------------------------------------------------------
  1 -0.1362E+06  0  0.9654E+05  0  0.9575E+05  0  0.2042E+05  0   4988.    
   ( 21,  1, 89)  ( 19,  1, 89)  ( 19,  1, 89)  ( 19,  1, 89)  ( 17,  1, 87)
  0  -2834.      0  -2144.      0  -675.3      1  -571.9    
   ( 22,  1, 87)  ( 22,  1, 87)  ( 22,  1, 87)  ( 22,  1, 87)


 FLOW MODEL IS TRANSIENT
 FLOW MODEL CONTAINS CONSTANT-HEAD CELLS


 MAXIMUM STEPSIZE DURING WHICH ANY PARTICLE CANNOT MOVE MORE THAN ONE CELL
 =  13.24    (WHEN MIN. R.F.=1)  AT K=  17, I=   1, J=  90

 MAXIMUM STEPSIZE WHICH MEETS STABILITY CRITERION OF THE ADVECTION TERM
 (FOR PURE FINITE-DIFFERENCE OPTION, MIXELM=0) 
 =  8.011    (WHEN MIN. R.F.=1)  AT K=  16, I=   1, J=  90


 TOTAL NUMBER OF POINT SOURCES/SINKS PRESENT IN THE FLOW MODEL =    30

 MAXIMUM STEPSIZE WHICH MEETS STABILITY CRITERION OF THE SINK & SOURCE TERM
 =  12.20    (WHEN MIN. R.F.=1)  AT K=  17, I=   1, J=  91

 MAXIMUM STEPSIZE WHICH MEETS STABILITY CRITERION OF THE DISPERSION TERM
 =  4.379    (WHEN MIN. R.F.=1)  AT K=  17, I=   1, J=  90
     1 CALLS TO GCG PACKAGE FOR TRANSPORT TIME STEP 848 IN FLOW TIME STEP   1 STRESS PERIOD   1
     9 TOTAL ITERATIONS
     1 CALLS TO GCG PACKAGE FOR TRANSPORT TIME STEP 848 IN FLOW TIME STEP   1 STRESS PERIOD   1
     8 TOTAL ITERATIONS
 
 SOLVING FOR HEAD 


     2 CALLS TO PCG ROUTINE FOR TIME STEP   1 IN STRESS PERIOD    1
     9 TOTAL ITERATIONS

 MAXIMUM HEAD CHANGE FOR EACH ITERATION (1 INDICATES THE FIRST INNER ITERATION):

    HEAD CHANGE    HEAD CHANGE    HEAD CHANGE    HEAD CHANGE    HEAD CHANGE 
   LAYER,ROW,COL  LAYER,ROW,COL  LAYER,ROW,COL  LAYER,ROW,COL  LAYER,ROW,COL
 ---------------------------------------------------------------------------
  1  0.1328E-01  0 -0.3720E-02  0 -0.7813E-02  0  0.4294E-02  0 -0.8263E-02
   ( 15,  1, 86)  ( 17,  1, 89)  ( 11,  1, 36)  (  7,  1, 12)  (  6,  1, 42)
  0  0.2022E-02  0  0.1249E-02  0 -0.9286E-03  1  0.8961E-03
   ( 11,  1, 67)  ( 11,  1, 49)  ( 11,  1, 67)  ( 11,  1, 67)

 MAXIMUM RESIDUAL FOR EACH ITERATION (1 INDICATES THE FIRST INNER ITERATION):

    RESIDUAL       RESIDUAL       RESIDUAL       RESIDUAL       RESIDUAL    
   LAYER,ROW,COL  LAYER,ROW,COL  LAYER,ROW,COL  LAYER,ROW,COL  LAYER,ROW,COL
 ---------------------------------------------------------------------------
  1  0.1353E+06  0 -0.9558E+05  0 -0.4585E+05  0 -0.2918E+05  0  -5868.    
   ( 21,  1, 89)  ( 19,  1, 89)  ( 19,  1, 89)  ( 19,  1, 89)  ( 17,  1, 87)
  0   2861.      0   2581.      0   907.5      1   763.1    
   ( 22,  1, 87)  ( 22,  1, 87)  ( 22,  1, 87)  ( 22,  1, 87)


 FLOW MODEL IS TRANSIENT
 FLOW MODEL CONTAINS CONSTANT-HEAD CELLS


 MAXIMUM STEPSIZE DURING WHICH ANY PARTICLE CANNOT MOVE MORE THAN ONE CELL
 =  12.85    (WHEN MIN. R.F.=1)  AT K=  17, I=   1, J=  90

 MAXIMUM STEPSIZE WHICH MEETS STABILITY CRITERION OF THE ADVECTION TERM
 (FOR PURE FINITE-DIFFERENCE OPTION, MIXELM=0) 
 =  8.035    (WHEN MIN. R.F.=1)  AT K=  16, I=   1, J=  90


 TOTAL NUMBER OF POINT SOURCES/SINKS PRESENT IN THE FLOW MODEL =    30

 MAXIMUM STEPSIZE WHICH MEETS STABILITY CRITERION OF THE SINK & SOURCE TERM
 =  12.20    (WHEN MIN. R.F.=1)  AT K=  17, I=   1, J=  91

 MAXIMUM STEPSIZE WHICH MEETS STABILITY CRITERION OF THE DISPERSION TERM
 =  4.026    (WHEN MIN. R.F.=1)  AT K=  17, I=   1, J=  90
     1 CALLS TO GCG PACKAGE FOR TRANSPORT TIME STEP 849 IN FLOW TIME STEP   1 STRESS PERIOD   1
     8 TOTAL ITERATIONS
     1 CALLS TO GCG PACKAGE FOR TRANSPORT TIME STEP 849 IN FLOW TIME STEP   1 STRESS PERIOD   1
     8 TOTAL ITERATIONS
 
 SOLVING FOR HEAD 


     2 CALLS TO PCG ROUTINE FOR TIME STEP   1 IN STRESS PERIOD    1
     8 TOTAL ITERATIONS

 MAXIMUM HEAD CHANGE FOR EACH ITERATION (1 INDICATES THE FIRST INNER ITERATION):

    HEAD CHANGE    HEAD CHANGE    HEAD CHANGE    HEAD CHANGE    HEAD CHANGE 
   LAYER,ROW,COL  LAYER,ROW,COL  LAYER,ROW,COL  LAYER,ROW,COL  LAYER,ROW,COL
 ---------------------------------------------------------------------------
  1 -0.1352E-01  0  0.3730E-02  0  0.3630E-02  0  0.1027E-01  0 -0.1056E-01
   ( 15,  1, 86)  ( 17,  1, 89)  (  8,  1, 12)  ( 11,  1, 62)  ( 11,  1, 62)
  0  0.2314E-02  0 -0.9790E-03  1  0.5317E-03
   ( 11,  1, 67)  ( 11,  1, 67)  ( 11,  1, 68)

 MAXIMUM RESIDUAL FOR EACH ITERATION (1 INDICATES THE FIRST INNER ITERATION):

    RESIDUAL       RESIDUAL       RESIDUAL       RESIDUAL       RESIDUAL    
   LAYER,ROW,COL  LAYER,ROW,COL  LAYER,ROW,COL  LAYER,ROW,COL  LAYER,ROW,COL
 ---------------------------------------------------------------------------
  1 -0.1337E+06  0  0.9372E+05  0  0.9290E+05  0  0.2477E+05  0   5283.    
   ( 21,  1, 89)  ( 19,  1, 89)  ( 19,  1, 89)  ( 19,  1, 89)  ( 17,  1, 87)
  0  -2812.      0  -2533.      1  -2020.    
   ( 22,  1, 87)  ( 22,  1, 87)  ( 22,  1, 87)


 FLOW MODEL IS TRANSIENT
 FLOW MODEL CONTAINS CONSTANT-HEAD CELLS


 MAXIMUM STEPSIZE DURING WHICH ANY PARTICLE CANNOT MOVE MORE THAN ONE CELL
 =  13.23    (WHEN MIN. R.F.=1)  AT K=  17, I=   1, J=  90

 MAXIMUM STEPSIZE WHICH MEETS STABILITY CRITERION OF THE ADVECTION TERM
 (FOR PURE FINITE-DIFFERENCE OPTION, MIXELM=0) 
 =  8.008    (WHEN MIN. R.F.=1)  AT K=  16, I=   1, J=  90


 TOTAL NUMBER OF POINT SOURCES/SINKS PRESENT IN THE FLOW MODEL =    30

 MAXIMUM STEPSIZE WHICH MEETS STABILITY CRITERION OF THE SINK & SOURCE TERM
 =  12.17    (WHEN MIN. R.F.=1)  AT K=  17, I=   1, J=  91

 MAXIMUM STEPSIZE WHICH MEETS STABILITY CRITERION OF THE DISPERSION TERM
 =  4.366    (WHEN MIN. R.F.=1)  AT K=  17, I=   1, J=  90
     1 CALLS TO GCG PACKAGE FOR TRANSPORT TIME STEP 850 IN FLOW TIME STEP   1 STRESS PERIOD   1
     8 TOTAL ITERATIONS
  MAXIMUM CONCENTRATION CHANGES FOR EACH ITERATION:
  MAX. CHANGE LAYER,ROW,COL MAX. CHANGE LAYER,ROW,COL MAX. CHANGE LAYER,ROW,COL MAX. CHANGE LAYER,ROW,COL MAX. CHANGE LAYER,ROW,COL
 ------------------------------------------------------------------------------------------------------------------------------------
   0.4890E-01 ( 20,  1, 87)  0.3321E-02 ( 19,  1, 87)  0.2204E-02 ( 18,  1, 87)  0.2183E-03 ( 16,  1, 88)  0.1461E-03 ( 16,  1, 89)
   0.2803E-04 ( 16,  1, 90)  0.3289E-05 ( 21,  1, 78)  0.7645E-06 ( 16,  1, 89)
     1 CALLS TO GCG PACKAGE FOR TRANSPORT TIME STEP 850 IN FLOW TIME STEP   1 STRESS PERIOD   1
     8 TOTAL ITERATIONS
  MAXIMUM CONCENTRATION CHANGES FOR EACH ITERATION:
  MAX. CHANGE LAYER,ROW,COL MAX. CHANGE LAYER,ROW,COL MAX. CHANGE LAYER,ROW,COL MAX. CHANGE LAYER,ROW,COL MAX. CHANGE LAYER,ROW,COL
 ------------------------------------------------------------------------------------------------------------------------------------
   0.5056E-01 ( 20,  1, 87)  0.3318E-02 ( 19,  1, 87)  0.2262E-02 ( 18,  1, 87)  0.2143E-03 ( 16,  1, 88)  0.1296E-03 ( 16,  1, 89)
   0.3179E-04 ( 16,  1, 90)  0.4535E-05 ( 17,  1, 90)  0.5031E-06 ( 16,  1, 89)



 >>>>>>>>>>>>>>>>>>>>>>>>>>>>>>>>>>>>>>>>>>>>>>>>>>>>>>>FOR COMPONENT NO. 01<<<<<<<<<<<<<<<<<<<<<<<<<<<<<<<<<<<<<<<<<<<<<<<<<<<<<<<


                                            -------------------------------------------
                                                      TRANSPORT STEP NO.  850
                                            -------------------------------------------

 TOTAL ELAPSED TIME SINCE BEGINNING OF SIMULATION =   42500.00    D   
 .....................................................................

                     CUMMULATIVE MASS BUDGETS AT END OF TRANSPORT STEP  850, TIME STEP    1, STRESS PERIOD    1
                     ------------------------------------------------------------------------------------------

                                                             IN                           OUT
                                                      ----------------             ----------------
                               CONSTANT CONCENTRATION:    0.000000                    0.000000    
                                        CONSTANT HEAD:   0.1681513E+10              -0.1681298E+10
                                                WELLS:    0.000000                    0.000000    
                                             RECHARGE:    0.000000                    0.000000    
                               1ST/0TH ORDER REACTION:    0.000000                    0.000000    
                                MASS STORAGE (SOLUTE):   0.2350381E+09              -0.2352534E+09
                            ---------------------------------------------------------------------------
                                              [TOTAL]:   0.1916553E+10 KG           -0.1916553E+10 KG  

                                                          NET (IN - OUT):   -383.2219    
                                                   DISCREPANCY (PERCENT):  -0.1999537E-04



 >>>>>>>>>>>>>>>>>>>>>>>>>>>>>>>>>>>>>>>>>>>>>>>>>>>>>>>FOR COMPONENT NO. 02<<<<<<<<<<<<<<<<<<<<<<<<<<<<<<<<<<<<<<<<<<<<<<<<<<<<<<<


                                            -------------------------------------------
                                                      TRANSPORT STEP NO.  850
                                            -------------------------------------------

 TOTAL ELAPSED TIME SINCE BEGINNING OF SIMULATION =   42500.00    D   
 .....................................................................

                     CUMMULATIVE MASS BUDGETS AT END OF TRANSPORT STEP  850, TIME STEP    1, STRESS PERIOD    1
                     ------------------------------------------------------------------------------------------

                                                             IN                           OUT
                                                      ----------------             ----------------
                               CONSTANT CONCENTRATION:    0.000000                    0.000000    
                                        CONSTANT HEAD:    0.000000                  -0.3609132E+12
                                                WELLS:    0.000000                    0.000000    
                                             RECHARGE:    0.000000                    0.000000    
                               1ST/0TH ORDER REACTION:   0.7033750E+12                0.000000    
                                MASS STORAGE (SOLUTE):   0.1389154E+12              -0.4813773E+12
                            ---------------------------------------------------------------------------
                                              [TOTAL]:   0.8422922E+12 KG           -0.8422923E+12 KG  

                                                          NET (IN - OUT):   -115901.2    
                                                   DISCREPANCY (PERCENT):  -0.1376021E-04
 
 SOLVING FOR HEAD 


     2 CALLS TO PCG ROUTINE FOR TIME STEP   1 IN STRESS PERIOD    1
     9 TOTAL ITERATIONS

 MAXIMUM HEAD CHANGE FOR EACH ITERATION (1 INDICATES THE FIRST INNER ITERATION):

    HEAD CHANGE    HEAD CHANGE    HEAD CHANGE    HEAD CHANGE    HEAD CHANGE 
   LAYER,ROW,COL  LAYER,ROW,COL  LAYER,ROW,COL  LAYER,ROW,COL  LAYER,ROW,COL
 ---------------------------------------------------------------------------
  1  0.1381E-01  0  0.7203E-02  0 -0.3167E-02  0 -0.8243E-02  0  0.5983E-02
   ( 15,  1, 86)  (  9,  1, 42)  (  7,  1, 12)  (  9,  1, 46)  (  7,  1, 47)
  0 -0.5138E-02  0  0.1444E-02  0 -0.7037E-03  1 -0.6920E-03
   ( 11,  1, 61)  ( 11,  1, 61)  ( 11,  1, 56)  ( 11,  1, 49)

 MAXIMUM RESIDUAL FOR EACH ITERATION (1 INDICATES THE FIRST INNER ITERATION):

    RESIDUAL       RESIDUAL       RESIDUAL       RESIDUAL       RESIDUAL    
   LAYER,ROW,COL  LAYER,ROW,COL  LAYER,ROW,COL  LAYER,ROW,COL  LAYER,ROW,COL
 ---------------------------------------------------------------------------
  1  0.1336E+06  0 -0.9444E+05  0 -0.9340E+05  0 -0.7703E+05  0  -6311.    
   ( 21,  1, 89)  ( 19,  1, 89)  ( 19,  1, 89)  ( 19,  1, 89)  ( 17,  1, 87)
  0   2978.      0   2628.      0   1198.      1   1068.    
   ( 17,  1, 88)  ( 22,  1, 87)  ( 22,  1, 87)  ( 22,  1, 87)


 FLOW MODEL IS TRANSIENT
 FLOW MODEL CONTAINS CONSTANT-HEAD CELLS


 MAXIMUM STEPSIZE DURING WHICH ANY PARTICLE CANNOT MOVE MORE THAN ONE CELL
 =  12.91    (WHEN MIN. R.F.=1)  AT K=  17, I=   1, J=  90

 MAXIMUM STEPSIZE WHICH MEETS STABILITY CRITERION OF THE ADVECTION TERM
 (FOR PURE FINITE-DIFFERENCE OPTION, MIXELM=0) 
 =  8.061    (WHEN MIN. R.F.=1)  AT K=  16, I=   1, J=  90


 TOTAL NUMBER OF POINT SOURCES/SINKS PRESENT IN THE FLOW MODEL =    30

 MAXIMUM STEPSIZE WHICH MEETS STABILITY CRITERION OF THE SINK & SOURCE TERM
 =  12.28    (WHEN MIN. R.F.=1)  AT K=  17, I=   1, J=  91

 MAXIMUM STEPSIZE WHICH MEETS STABILITY CRITERION OF THE DISPERSION TERM
 =  4.050    (WHEN MIN. R.F.=1)  AT K=  17, I=   1, J=  90
     1 CALLS TO GCG PACKAGE FOR TRANSPORT TIME STEP 851 IN FLOW TIME STEP   1 STRESS PERIOD   1
     8 TOTAL ITERATIONS
     1 CALLS TO GCG PACKAGE FOR TRANSPORT TIME STEP 851 IN FLOW TIME STEP   1 STRESS PERIOD   1
     8 TOTAL ITERATIONS
 
 SOLVING FOR HEAD 


     2 CALLS TO PCG ROUTINE FOR TIME STEP   1 IN STRESS PERIOD    1
     8 TOTAL ITERATIONS

 MAXIMUM HEAD CHANGE FOR EACH ITERATION (1 INDICATES THE FIRST INNER ITERATION):

    HEAD CHANGE    HEAD CHANGE    HEAD CHANGE    HEAD CHANGE    HEAD CHANGE 
   LAYER,ROW,COL  LAYER,ROW,COL  LAYER,ROW,COL  LAYER,ROW,COL  LAYER,ROW,COL
 ---------------------------------------------------------------------------
  1 -0.1367E-01  0  0.4048E-02  0  0.3845E-02  0  0.1043E-01  0 -0.1212E-01
   ( 15,  1, 86)  ( 17,  1, 89)  (  8,  1, 12)  ( 11,  1, 49)  ( 11,  1, 49)
  0  0.2317E-02  0 -0.8533E-03  1  0.8641E-03
   ( 11,  1, 50)  ( 11,  1, 55)  ( 11,  1, 55)

 MAXIMUM RESIDUAL FOR EACH ITERATION (1 INDICATES THE FIRST INNER ITERATION):

    RESIDUAL       RESIDUAL       RESIDUAL       RESIDUAL       RESIDUAL    
   LAYER,ROW,COL  LAYER,ROW,COL  LAYER,ROW,COL  LAYER,ROW,COL  LAYER,ROW,COL
 ---------------------------------------------------------------------------
  1 -0.1359E+06  0  0.9677E+05  0  0.9595E+05  0  0.1878E+05  0  -4728.    
   ( 21,  1, 89)  ( 19,  1, 89)  ( 19,  1, 89)  ( 19,  1, 89)  ( 17,  1, 88)
  0  -2828.      0  -2309.      1  -1999.    
   ( 22,  1, 87)  ( 22,  1, 87)  ( 22,  1, 87)


 FLOW MODEL IS TRANSIENT
 FLOW MODEL CONTAINS CONSTANT-HEAD CELLS


 MAXIMUM STEPSIZE DURING WHICH ANY PARTICLE CANNOT MOVE MORE THAN ONE CELL
 =  13.24    (WHEN MIN. R.F.=1)  AT K=  17, I=   1, J=  90

 MAXIMUM STEPSIZE WHICH MEETS STABILITY CRITERION OF THE ADVECTION TERM
 (FOR PURE FINITE-DIFFERENCE OPTION, MIXELM=0) 
 =  8.012    (WHEN MIN. R.F.=1)  AT K=  16, I=   1, J=  90


 TOTAL NUMBER OF POINT SOURCES/SINKS PRESENT IN THE FLOW MODEL =    30

 MAXIMUM STEPSIZE WHICH MEETS STABILITY CRITERION OF THE SINK & SOURCE TERM
 =  12.20    (WHEN MIN. R.F.=1)  AT K=  17, I=   1, J=  91

 MAXIMUM STEPSIZE WHICH MEETS STABILITY CRITERION OF THE DISPERSION TERM
 =  4.378    (WHEN MIN. R.F.=1)  AT K=  17, I=   1, J=  90
     1 CALLS TO GCG PACKAGE FOR TRANSPORT TIME STEP 852 IN FLOW TIME STEP   1 STRESS PERIOD   1
    10 TOTAL ITERATIONS
     1 CALLS TO GCG PACKAGE FOR TRANSPORT TIME STEP 852 IN FLOW TIME STEP   1 STRESS PERIOD   1
     8 TOTAL ITERATIONS
 
 SOLVING FOR HEAD 


     2 CALLS TO PCG ROUTINE FOR TIME STEP   1 IN STRESS PERIOD    1
     9 TOTAL ITERATIONS

 MAXIMUM HEAD CHANGE FOR EACH ITERATION (1 INDICATES THE FIRST INNER ITERATION):

    HEAD CHANGE    HEAD CHANGE    HEAD CHANGE    HEAD CHANGE    HEAD CHANGE 
   LAYER,ROW,COL  LAYER,ROW,COL  LAYER,ROW,COL  LAYER,ROW,COL  LAYER,ROW,COL
 ---------------------------------------------------------------------------
  1  0.1369E-01  0  0.5572E-02  0 -0.3191E-02  0 -0.1535E-01  0  0.1254E-01
   ( 15,  1, 86)  ( 11,  1, 55)  (  8,  1, 12)  ( 11,  1, 55)  ( 11,  1, 56)
  0  0.2582E-02  0 -0.1356E-02  0 -0.8372E-03  1 -0.6837E-03
   ( 11,  1, 37)  ( 11,  1, 55)  ( 11,  1, 67)  ( 11,  1, 49)

 MAXIMUM RESIDUAL FOR EACH ITERATION (1 INDICATES THE FIRST INNER ITERATION):

    RESIDUAL       RESIDUAL       RESIDUAL       RESIDUAL       RESIDUAL    
   LAYER,ROW,COL  LAYER,ROW,COL  LAYER,ROW,COL  LAYER,ROW,COL  LAYER,ROW,COL
 ---------------------------------------------------------------------------
  1  0.1365E+06  0 -0.9730E+05  0 -0.9631E+05  0 -0.5314E+05  0  -5651.    
   ( 21,  1, 89)  ( 19,  1, 89)  ( 19,  1, 89)  ( 19,  1, 89)  ( 17,  1, 87)
  0   2847.      0   2580.      0   1420.      1   1269.    
   ( 17,  1, 88)  ( 22,  1, 87)  ( 22,  1, 87)  ( 22,  1, 87)


 FLOW MODEL IS TRANSIENT
 FLOW MODEL CONTAINS CONSTANT-HEAD CELLS


 MAXIMUM STEPSIZE DURING WHICH ANY PARTICLE CANNOT MOVE MORE THAN ONE CELL
 =  12.89    (WHEN MIN. R.F.=1)  AT K=  17, I=   1, J=  90

 MAXIMUM STEPSIZE WHICH MEETS STABILITY CRITERION OF THE ADVECTION TERM
 (FOR PURE FINITE-DIFFERENCE OPTION, MIXELM=0) 
 =  8.053    (WHEN MIN. R.F.=1)  AT K=  16, I=   1, J=  90


 TOTAL NUMBER OF POINT SOURCES/SINKS PRESENT IN THE FLOW MODEL =    30

 MAXIMUM STEPSIZE WHICH MEETS STABILITY CRITERION OF THE SINK & SOURCE TERM
 =  12.26    (WHEN MIN. R.F.=1)  AT K=  17, I=   1, J=  91

 MAXIMUM STEPSIZE WHICH MEETS STABILITY CRITERION OF THE DISPERSION TERM
 =  4.037    (WHEN MIN. R.F.=1)  AT K=  17, I=   1, J=  90
     1 CALLS TO GCG PACKAGE FOR TRANSPORT TIME STEP 853 IN FLOW TIME STEP   1 STRESS PERIOD   1
     8 TOTAL ITERATIONS
     1 CALLS TO GCG PACKAGE FOR TRANSPORT TIME STEP 853 IN FLOW TIME STEP   1 STRESS PERIOD   1
     8 TOTAL ITERATIONS
 
 SOLVING FOR HEAD 


     2 CALLS TO PCG ROUTINE FOR TIME STEP   1 IN STRESS PERIOD    1
     8 TOTAL ITERATIONS

 MAXIMUM HEAD CHANGE FOR EACH ITERATION (1 INDICATES THE FIRST INNER ITERATION):

    HEAD CHANGE    HEAD CHANGE    HEAD CHANGE    HEAD CHANGE    HEAD CHANGE 
   LAYER,ROW,COL  LAYER,ROW,COL  LAYER,ROW,COL  LAYER,ROW,COL  LAYER,ROW,COL
 ---------------------------------------------------------------------------
  1 -0.1370E-01  0 -0.4751E-02  0  0.5040E-02  0 -0.9835E-02  0 -0.9897E-02
   ( 15,  1, 86)  (  8,  1, 12)  (  8,  1, 12)  ( 11,  1, 68)  ( 11,  1, 50)
  0  0.1449E-02  0 -0.6321E-03  1  0.5327E-03
   ( 11,  1, 53)  ( 11,  1, 37)  ( 11,  1, 37)

 MAXIMUM RESIDUAL FOR EACH ITERATION (1 INDICATES THE FIRST INNER ITERATION):

    RESIDUAL       RESIDUAL       RESIDUAL       RESIDUAL       RESIDUAL    
   LAYER,ROW,COL  LAYER,ROW,COL  LAYER,ROW,COL  LAYER,ROW,COL  LAYER,ROW,COL
 ---------------------------------------------------------------------------
  1 -0.1360E+06  0  0.9635E+05  0  0.9577E+05  0  0.2247E+05  0  -5265.    
   ( 21,  1, 89)  ( 19,  1, 89)  ( 19,  1, 89)  ( 19,  1, 89)  ( 17,  1, 88)
  0  -2848.      0  -2527.      1  -2088.    
   ( 22,  1, 87)  ( 22,  1, 87)  ( 22,  1, 87)


 FLOW MODEL IS TRANSIENT
 FLOW MODEL CONTAINS CONSTANT-HEAD CELLS


 MAXIMUM STEPSIZE DURING WHICH ANY PARTICLE CANNOT MOVE MORE THAN ONE CELL
 =  13.24    (WHEN MIN. R.F.=1)  AT K=  17, I=   1, J=  90

 MAXIMUM STEPSIZE WHICH MEETS STABILITY CRITERION OF THE ADVECTION TERM
 (FOR PURE FINITE-DIFFERENCE OPTION, MIXELM=0) 
 =  8.011    (WHEN MIN. R.F.=1)  AT K=  16, I=   1, J=  90


 TOTAL NUMBER OF POINT SOURCES/SINKS PRESENT IN THE FLOW MODEL =    30

 MAXIMUM STEPSIZE WHICH MEETS STABILITY CRITERION OF THE SINK & SOURCE TERM
 =  12.18    (WHEN MIN. R.F.=1)  AT K=  17, I=   1, J=  91

 MAXIMUM STEPSIZE WHICH MEETS STABILITY CRITERION OF THE DISPERSION TERM
 =  4.382    (WHEN MIN. R.F.=1)  AT K=  17, I=   1, J=  90
     1 CALLS TO GCG PACKAGE FOR TRANSPORT TIME STEP 854 IN FLOW TIME STEP   1 STRESS PERIOD   1
     7 TOTAL ITERATIONS
     1 CALLS TO GCG PACKAGE FOR TRANSPORT TIME STEP 854 IN FLOW TIME STEP   1 STRESS PERIOD   1
     8 TOTAL ITERATIONS
 
 SOLVING FOR HEAD 


     2 CALLS TO PCG ROUTINE FOR TIME STEP   1 IN STRESS PERIOD    1
     9 TOTAL ITERATIONS

 MAXIMUM HEAD CHANGE FOR EACH ITERATION (1 INDICATES THE FIRST INNER ITERATION):

    HEAD CHANGE    HEAD CHANGE    HEAD CHANGE    HEAD CHANGE    HEAD CHANGE 
   LAYER,ROW,COL  LAYER,ROW,COL  LAYER,ROW,COL  LAYER,ROW,COL  LAYER,ROW,COL
 ---------------------------------------------------------------------------
  1  0.1367E-01  0  0.5822E-02  0 -0.3723E-02  0  0.1040E-01  0 -0.7794E-02
   ( 15,  1, 86)  ( 11,  1, 37)  (  8,  1, 12)  (  6,  1, 43)  (  8,  1, 45)
  0 -0.3698E-02  0  0.1443E-02  0 -0.9670E-03  1  0.7555E-03
   ( 11,  1, 49)  ( 11,  1, 50)  ( 11,  1, 55)  ( 11,  1, 55)

 MAXIMUM RESIDUAL FOR EACH ITERATION (1 INDICATES THE FIRST INNER ITERATION):

    RESIDUAL       RESIDUAL       RESIDUAL       RESIDUAL       RESIDUAL    
   LAYER,ROW,COL  LAYER,ROW,COL  LAYER,ROW,COL  LAYER,ROW,COL  LAYER,ROW,COL
 ---------------------------------------------------------------------------
  1  0.1374E+06  0 -0.9805E+05  0 -0.9713E+05  0 -0.7480E+05  0   6146.    
   ( 21,  1, 89)  ( 19,  1, 89)  ( 19,  1, 89)  ( 19,  1, 89)  ( 17,  1, 88)
  0   3076.      0   2567.      0   1238.      1   1097.    
   ( 17,  1, 88)  ( 22,  1, 87)  ( 22,  1, 87)  ( 22,  1, 87)


 FLOW MODEL IS TRANSIENT
 FLOW MODEL CONTAINS CONSTANT-HEAD CELLS


 MAXIMUM STEPSIZE DURING WHICH ANY PARTICLE CANNOT MOVE MORE THAN ONE CELL
 =  12.89    (WHEN MIN. R.F.=1)  AT K=  17, I=   1, J=  90

 MAXIMUM STEPSIZE WHICH MEETS STABILITY CRITERION OF THE ADVECTION TERM
 (FOR PURE FINITE-DIFFERENCE OPTION, MIXELM=0) 
 =  8.056    (WHEN MIN. R.F.=1)  AT K=  16, I=   1, J=  90


 TOTAL NUMBER OF POINT SOURCES/SINKS PRESENT IN THE FLOW MODEL =    30

 MAXIMUM STEPSIZE WHICH MEETS STABILITY CRITERION OF THE SINK & SOURCE TERM
 =  12.26    (WHEN MIN. R.F.=1)  AT K=  17, I=   1, J=  91

 MAXIMUM STEPSIZE WHICH MEETS STABILITY CRITERION OF THE DISPERSION TERM
 =  4.037    (WHEN MIN. R.F.=1)  AT K=  17, I=   1, J=  90
     1 CALLS TO GCG PACKAGE FOR TRANSPORT TIME STEP 855 IN FLOW TIME STEP   1 STRESS PERIOD   1
     8 TOTAL ITERATIONS
  MAXIMUM CONCENTRATION CHANGES FOR EACH ITERATION:
  MAX. CHANGE LAYER,ROW,COL MAX. CHANGE LAYER,ROW,COL MAX. CHANGE LAYER,ROW,COL MAX. CHANGE LAYER,ROW,COL MAX. CHANGE LAYER,ROW,COL
 ------------------------------------------------------------------------------------------------------------------------------------
   0.5198E-01 ( 20,  1, 87)  0.4325E-02 ( 19,  1, 89)  0.2059E-02 ( 17,  1, 86)  0.5020E-03 ( 20,  1, 89)  0.9294E-04 ( 16,  1, 89)
   0.2112E-04 ( 20,  1, 89)  0.2366E-04 ( 16,  1, 90)  0.6469E-06 ( 17,  1, 90)
     1 CALLS TO GCG PACKAGE FOR TRANSPORT TIME STEP 855 IN FLOW TIME STEP   1 STRESS PERIOD   1
     8 TOTAL ITERATIONS
  MAXIMUM CONCENTRATION CHANGES FOR EACH ITERATION:
  MAX. CHANGE LAYER,ROW,COL MAX. CHANGE LAYER,ROW,COL MAX. CHANGE LAYER,ROW,COL MAX. CHANGE LAYER,ROW,COL MAX. CHANGE LAYER,ROW,COL
 ------------------------------------------------------------------------------------------------------------------------------------
   0.5392E-01 ( 20,  1, 87)  0.4556E-02 ( 19,  1, 89)  0.1977E-02 ( 18,  1, 86)  0.4523E-03 ( 20,  1, 89)  0.9780E-04 ( 16,  1, 89)
   0.1584E-04 ( 23,  1, 87)  0.1933E-04 ( 16,  1, 90)  0.7692E-06 ( 17,  1, 90)
 
 SOLVING FOR HEAD 


     2 CALLS TO PCG ROUTINE FOR TIME STEP   1 IN STRESS PERIOD    1
     8 TOTAL ITERATIONS

 MAXIMUM HEAD CHANGE FOR EACH ITERATION (1 INDICATES THE FIRST INNER ITERATION):

    HEAD CHANGE    HEAD CHANGE    HEAD CHANGE    HEAD CHANGE    HEAD CHANGE 
   LAYER,ROW,COL  LAYER,ROW,COL  LAYER,ROW,COL  LAYER,ROW,COL  LAYER,ROW,COL
 ---------------------------------------------------------------------------
  1 -0.1370E-01  0 -0.5101E-02  0  0.5457E-02  0 -0.1122E-01  0  0.1106E-01
   ( 15,  1, 86)  (  8,  1, 12)  (  8,  1, 12)  ( 11,  1, 54)  ( 11,  1, 54)
  0  0.2575E-02  0  0.8321E-03  1  0.6537E-03
   ( 11,  1, 68)  ( 11,  1, 49)  ( 11,  1, 55)

 MAXIMUM RESIDUAL FOR EACH ITERATION (1 INDICATES THE FIRST INNER ITERATION):

    RESIDUAL       RESIDUAL       RESIDUAL       RESIDUAL       RESIDUAL    
   LAYER,ROW,COL  LAYER,ROW,COL  LAYER,ROW,COL  LAYER,ROW,COL  LAYER,ROW,COL
 ---------------------------------------------------------------------------
  1 -0.1364E+06  0  0.9648E+05  0  0.9599E+05  0  0.2134E+05  0  -5213.    
   ( 21,  1, 89)  ( 19,  1, 89)  ( 19,  1, 89)  ( 19,  1, 89)  ( 17,  1, 88)
  0  -2806.      0  -2532.      1  -1956.    
   ( 22,  1, 87)  ( 22,  1, 87)  ( 22,  1, 87)


 FLOW MODEL IS TRANSIENT
 FLOW MODEL CONTAINS CONSTANT-HEAD CELLS


 MAXIMUM STEPSIZE DURING WHICH ANY PARTICLE CANNOT MOVE MORE THAN ONE CELL
 =  13.26    (WHEN MIN. R.F.=1)  AT K=  17, I=   1, J=  90

 MAXIMUM STEPSIZE WHICH MEETS STABILITY CRITERION OF THE ADVECTION TERM
 (FOR PURE FINITE-DIFFERENCE OPTION, MIXELM=0) 
 =  8.016    (WHEN MIN. R.F.=1)  AT K=  16, I=   1, J=  90


 TOTAL NUMBER OF POINT SOURCES/SINKS PRESENT IN THE FLOW MODEL =    30

 MAXIMUM STEPSIZE WHICH MEETS STABILITY CRITERION OF THE SINK & SOURCE TERM
 =  12.19    (WHEN MIN. R.F.=1)  AT K=  17, I=   1, J=  91

 MAXIMUM STEPSIZE WHICH MEETS STABILITY CRITERION OF THE DISPERSION TERM
 =  4.391    (WHEN MIN. R.F.=1)  AT K=  17, I=   1, J=  90
     1 CALLS TO GCG PACKAGE FOR TRANSPORT TIME STEP 856 IN FLOW TIME STEP   1 STRESS PERIOD   1
    10 TOTAL ITERATIONS
     1 CALLS TO GCG PACKAGE FOR TRANSPORT TIME STEP 856 IN FLOW TIME STEP   1 STRESS PERIOD   1
     8 TOTAL ITERATIONS
 
 SOLVING FOR HEAD 


     2 CALLS TO PCG ROUTINE FOR TIME STEP   1 IN STRESS PERIOD    1
     9 TOTAL ITERATIONS

 MAXIMUM HEAD CHANGE FOR EACH ITERATION (1 INDICATES THE FIRST INNER ITERATION):

    HEAD CHANGE    HEAD CHANGE    HEAD CHANGE    HEAD CHANGE    HEAD CHANGE 
   LAYER,ROW,COL  LAYER,ROW,COL  LAYER,ROW,COL  LAYER,ROW,COL  LAYER,ROW,COL
 ---------------------------------------------------------------------------
  1  0.1361E-01  0  0.7198E-02  0 -0.2857E-02  0 -0.9018E-02  0  0.6909E-02
   ( 15,  1, 86)  (  8,  1, 49)  (  7,  1, 12)  (  8,  1, 49)  (  7,  1, 46)
  0  0.4999E-02  0 -0.1659E-02  0 -0.7296E-03  1 -0.6819E-03
   ( 11,  1, 55)  ( 11,  1, 55)  ( 11,  1, 70)  ( 11,  1, 49)

 MAXIMUM RESIDUAL FOR EACH ITERATION (1 INDICATES THE FIRST INNER ITERATION):

    RESIDUAL       RESIDUAL       RESIDUAL       RESIDUAL       RESIDUAL    
   LAYER,ROW,COL  LAYER,ROW,COL  LAYER,ROW,COL  LAYER,ROW,COL  LAYER,ROW,COL
 ---------------------------------------------------------------------------
  1  0.1376E+06  0 -0.9793E+05  0 -0.9662E+05  0 -0.7830E+05  0  -6743.    
   ( 21,  1, 89)  ( 19,  1, 89)  ( 19,  1, 89)  ( 19,  1, 89)  ( 17,  1, 87)
  0   3307.      0   2565.      0   1708.      1   1516.    
   ( 17,  1, 88)  ( 22,  1, 87)  ( 22,  1, 87)  ( 22,  1, 87)


 FLOW MODEL IS TRANSIENT
 FLOW MODEL CONTAINS CONSTANT-HEAD CELLS


 MAXIMUM STEPSIZE DURING WHICH ANY PARTICLE CANNOT MOVE MORE THAN ONE CELL
 =  12.89    (WHEN MIN. R.F.=1)  AT K=  17, I=   1, J=  90

 MAXIMUM STEPSIZE WHICH MEETS STABILITY CRITERION OF THE ADVECTION TERM
 (FOR PURE FINITE-DIFFERENCE OPTION, MIXELM=0) 
 =  8.056    (WHEN MIN. R.F.=1)  AT K=  16, I=   1, J=  90


 TOTAL NUMBER OF POINT SOURCES/SINKS PRESENT IN THE FLOW MODEL =    30

 MAXIMUM STEPSIZE WHICH MEETS STABILITY CRITERION OF THE SINK & SOURCE TERM
 =  12.26    (WHEN MIN. R.F.=1)  AT K=  17, I=   1, J=  91

 MAXIMUM STEPSIZE WHICH MEETS STABILITY CRITERION OF THE DISPERSION TERM
 =  4.038    (WHEN MIN. R.F.=1)  AT K=  17, I=   1, J=  90
     1 CALLS TO GCG PACKAGE FOR TRANSPORT TIME STEP 857 IN FLOW TIME STEP   1 STRESS PERIOD   1
     8 TOTAL ITERATIONS
     1 CALLS TO GCG PACKAGE FOR TRANSPORT TIME STEP 857 IN FLOW TIME STEP   1 STRESS PERIOD   1
     8 TOTAL ITERATIONS
 
 SOLVING FOR HEAD 


     2 CALLS TO PCG ROUTINE FOR TIME STEP   1 IN STRESS PERIOD    1
     8 TOTAL ITERATIONS

 MAXIMUM HEAD CHANGE FOR EACH ITERATION (1 INDICATES THE FIRST INNER ITERATION):

    HEAD CHANGE    HEAD CHANGE    HEAD CHANGE    HEAD CHANGE    HEAD CHANGE 
   LAYER,ROW,COL  LAYER,ROW,COL  LAYER,ROW,COL  LAYER,ROW,COL  LAYER,ROW,COL
 ---------------------------------------------------------------------------
  1 -0.1383E-01  0 -0.5294E-02  0  0.5695E-02  0  0.1026E-01  0 -0.1116E-01
   ( 15,  1, 86)  (  7,  1, 12)  (  8,  1, 12)  ( 11,  1, 50)  ( 11,  1, 51)
  0  0.2144E-02  0  0.7788E-03  1  0.5730E-03
   ( 11,  1, 54)  ( 11,  1, 62)  ( 11,  1, 38)

 MAXIMUM RESIDUAL FOR EACH ITERATION (1 INDICATES THE FIRST INNER ITERATION):

    RESIDUAL       RESIDUAL       RESIDUAL       RESIDUAL       RESIDUAL    
   LAYER,ROW,COL  LAYER,ROW,COL  LAYER,ROW,COL  LAYER,ROW,COL  LAYER,ROW,COL
 ---------------------------------------------------------------------------
  1 -0.1382E+06  0  0.9824E+05  0  0.9778E+05  0  0.2813E+05  0  -5411.    
   ( 21,  1, 89)  ( 19,  1, 89)  ( 19,  1, 89)  ( 19,  1, 89)  ( 17,  1, 88)
  0  -2782.      0  -2255.      1  -1964.    
   ( 22,  1, 87)  ( 22,  1, 87)  ( 22,  1, 87)


 FLOW MODEL IS TRANSIENT
 FLOW MODEL CONTAINS CONSTANT-HEAD CELLS


 MAXIMUM STEPSIZE DURING WHICH ANY PARTICLE CANNOT MOVE MORE THAN ONE CELL
 =  13.24    (WHEN MIN. R.F.=1)  AT K=  17, I=   1, J=  90

 MAXIMUM STEPSIZE WHICH MEETS STABILITY CRITERION OF THE ADVECTION TERM
 (FOR PURE FINITE-DIFFERENCE OPTION, MIXELM=0) 
 =  8.008    (WHEN MIN. R.F.=1)  AT K=  16, I=   1, J=  90


 TOTAL NUMBER OF POINT SOURCES/SINKS PRESENT IN THE FLOW MODEL =    30

 MAXIMUM STEPSIZE WHICH MEETS STABILITY CRITERION OF THE SINK & SOURCE TERM
 =  12.17    (WHEN MIN. R.F.=1)  AT K=  17, I=   1, J=  91

 MAXIMUM STEPSIZE WHICH MEETS STABILITY CRITERION OF THE DISPERSION TERM
 =  4.386    (WHEN MIN. R.F.=1)  AT K=  17, I=   1, J=  90
     1 CALLS TO GCG PACKAGE FOR TRANSPORT TIME STEP 858 IN FLOW TIME STEP   1 STRESS PERIOD   1
     7 TOTAL ITERATIONS
     1 CALLS TO GCG PACKAGE FOR TRANSPORT TIME STEP 858 IN FLOW TIME STEP   1 STRESS PERIOD   1
     8 TOTAL ITERATIONS
 
 SOLVING FOR HEAD 


     2 CALLS TO PCG ROUTINE FOR TIME STEP   1 IN STRESS PERIOD    1
     9 TOTAL ITERATIONS

 MAXIMUM HEAD CHANGE FOR EACH ITERATION (1 INDICATES THE FIRST INNER ITERATION):

    HEAD CHANGE    HEAD CHANGE    HEAD CHANGE    HEAD CHANGE    HEAD CHANGE 
   LAYER,ROW,COL  LAYER,ROW,COL  LAYER,ROW,COL  LAYER,ROW,COL  LAYER,ROW,COL
 ---------------------------------------------------------------------------
  1  0.1370E-01  0 -0.4289E-02  0 -0.3616E-02  0 -0.1038E-01  0 -0.8317E-02
   ( 15,  1, 86)  ( 17,  1, 89)  (  8,  1, 12)  ( 11,  1, 37)  (  8,  1, 45)
  0 -0.3023E-02  0 -0.1231E-02  0 -0.7602E-03  1  0.7413E-03
   ( 11,  1, 49)  ( 11,  1, 55)  ( 11,  1, 65)  ( 11,  1, 65)

 MAXIMUM RESIDUAL FOR EACH ITERATION (1 INDICATES THE FIRST INNER ITERATION):

    RESIDUAL       RESIDUAL       RESIDUAL       RESIDUAL       RESIDUAL    
   LAYER,ROW,COL  LAYER,ROW,COL  LAYER,ROW,COL  LAYER,ROW,COL  LAYER,ROW,COL
 ---------------------------------------------------------------------------
  1  0.1376E+06  0 -0.9830E+05  0 -0.9739E+05  0 -0.5825E+05  0   6172.    
   ( 21,  1, 89)  ( 19,  1, 89)  ( 19,  1, 89)  ( 19,  1, 89)  ( 17,  1, 88)
  0   2919.      0   2541.      0   702.6      1   593.5    
   ( 17,  1, 88)  ( 22,  1, 87)  ( 22,  1, 87)  ( 22,  1, 87)


 FLOW MODEL IS TRANSIENT
 FLOW MODEL CONTAINS CONSTANT-HEAD CELLS


 MAXIMUM STEPSIZE DURING WHICH ANY PARTICLE CANNOT MOVE MORE THAN ONE CELL
 =  12.88    (WHEN MIN. R.F.=1)  AT K=  17, I=   1, J=  90

 MAXIMUM STEPSIZE WHICH MEETS STABILITY CRITERION OF THE ADVECTION TERM
 (FOR PURE FINITE-DIFFERENCE OPTION, MIXELM=0) 
 =  8.053    (WHEN MIN. R.F.=1)  AT K=  16, I=   1, J=  90


 TOTAL NUMBER OF POINT SOURCES/SINKS PRESENT IN THE FLOW MODEL =    30

 MAXIMUM STEPSIZE WHICH MEETS STABILITY CRITERION OF THE SINK & SOURCE TERM
 =  12.24    (WHEN MIN. R.F.=1)  AT K=  17, I=   1, J=  91

 MAXIMUM STEPSIZE WHICH MEETS STABILITY CRITERION OF THE DISPERSION TERM
 =  4.033    (WHEN MIN. R.F.=1)  AT K=  17, I=   1, J=  90
     1 CALLS TO GCG PACKAGE FOR TRANSPORT TIME STEP 859 IN FLOW TIME STEP   1 STRESS PERIOD   1
     8 TOTAL ITERATIONS
     1 CALLS TO GCG PACKAGE FOR TRANSPORT TIME STEP 859 IN FLOW TIME STEP   1 STRESS PERIOD   1
     8 TOTAL ITERATIONS
 
 SOLVING FOR HEAD 


     2 CALLS TO PCG ROUTINE FOR TIME STEP   1 IN STRESS PERIOD    1
     9 TOTAL ITERATIONS

 MAXIMUM HEAD CHANGE FOR EACH ITERATION (1 INDICATES THE FIRST INNER ITERATION):

    HEAD CHANGE    HEAD CHANGE    HEAD CHANGE    HEAD CHANGE    HEAD CHANGE 
   LAYER,ROW,COL  LAYER,ROW,COL  LAYER,ROW,COL  LAYER,ROW,COL  LAYER,ROW,COL
 ---------------------------------------------------------------------------
  1 -0.1357E-01  0 -0.4513E-02  0  0.4920E-02  0 -0.1051E-01  0 -0.1041E-01
   ( 15,  1, 86)  (  7,  1, 12)  (  8,  1, 12)  ( 11,  1, 65)  ( 11,  1, 58)
  0  0.2273E-02  0 -0.1182E-02  0  0.5659E-03  1 -0.7622E-03
   ( 11,  1, 56)  ( 11,  1, 65)  ( 11,  1, 70)  ( 11,  1, 70)

 MAXIMUM RESIDUAL FOR EACH ITERATION (1 INDICATES THE FIRST INNER ITERATION):

    RESIDUAL       RESIDUAL       RESIDUAL       RESIDUAL       RESIDUAL    
   LAYER,ROW,COL  LAYER,ROW,COL  LAYER,ROW,COL  LAYER,ROW,COL  LAYER,ROW,COL
 ---------------------------------------------------------------------------
  1 -0.1359E+06  0  0.9616E+05  0  0.9557E+05  0  0.2102E+05  0   4998.    
   ( 21,  1, 89)  ( 19,  1, 89)  ( 19,  1, 89)  ( 19,  1, 89)  ( 17,  1, 87)
  0  -2791.      0  -2484.      0  -972.4      1  -869.6    
   ( 22,  1, 87)  ( 22,  1, 87)  ( 22,  1, 87)  ( 22,  1, 87)


 FLOW MODEL IS TRANSIENT
 FLOW MODEL CONTAINS CONSTANT-HEAD CELLS


 MAXIMUM STEPSIZE DURING WHICH ANY PARTICLE CANNOT MOVE MORE THAN ONE CELL
 =  13.27    (WHEN MIN. R.F.=1)  AT K=  17, I=   1, J=  90

 MAXIMUM STEPSIZE WHICH MEETS STABILITY CRITERION OF THE ADVECTION TERM
 (FOR PURE FINITE-DIFFERENCE OPTION, MIXELM=0) 
 =  8.019    (WHEN MIN. R.F.=1)  AT K=  16, I=   1, J=  90


 TOTAL NUMBER OF POINT SOURCES/SINKS PRESENT IN THE FLOW MODEL =    30

 MAXIMUM STEPSIZE WHICH MEETS STABILITY CRITERION OF THE SINK & SOURCE TERM
 =  12.20    (WHEN MIN. R.F.=1)  AT K=  17, I=   1, J=  91

 MAXIMUM STEPSIZE WHICH MEETS STABILITY CRITERION OF THE DISPERSION TERM
 =  4.398    (WHEN MIN. R.F.=1)  AT K=  17, I=   1, J=  90
     1 CALLS TO GCG PACKAGE FOR TRANSPORT TIME STEP 860 IN FLOW TIME STEP   1 STRESS PERIOD   1
     9 TOTAL ITERATIONS
  MAXIMUM CONCENTRATION CHANGES FOR EACH ITERATION:
  MAX. CHANGE LAYER,ROW,COL MAX. CHANGE LAYER,ROW,COL MAX. CHANGE LAYER,ROW,COL MAX. CHANGE LAYER,ROW,COL MAX. CHANGE LAYER,ROW,COL
 ------------------------------------------------------------------------------------------------------------------------------------
   0.4908E-01 ( 20,  1, 87)  0.3364E-02 ( 19,  1, 87)  0.2270E-02 ( 18,  1, 87)  0.2208E-03 ( 16,  1, 88)  0.1405E-03 ( 17,  1, 89)
   0.3184E-04 ( 16,  1, 90)  0.1596E-04 ( 21,  1, 78)  0.1185E-04 ( 21,  1, 78)  0.7938E-06 ( 16,  1, 89)
     1 CALLS TO GCG PACKAGE FOR TRANSPORT TIME STEP 860 IN FLOW TIME STEP   1 STRESS PERIOD   1
     8 TOTAL ITERATIONS
  MAXIMUM CONCENTRATION CHANGES FOR EACH ITERATION:
  MAX. CHANGE LAYER,ROW,COL MAX. CHANGE LAYER,ROW,COL MAX. CHANGE LAYER,ROW,COL MAX. CHANGE LAYER,ROW,COL MAX. CHANGE LAYER,ROW,COL
 ------------------------------------------------------------------------------------------------------------------------------------
   0.4990E-01 ( 20,  1, 87)  0.3350E-02 ( 19,  1, 87)  0.2252E-02 ( 18,  1, 87)  0.2149E-03 ( 16,  1, 88)  0.1300E-03 ( 17,  1, 89)
   0.3297E-04 ( 16,  1, 90)  0.4416E-05 ( 17,  1, 90)  0.5191E-06 ( 16,  1, 89)



 >>>>>>>>>>>>>>>>>>>>>>>>>>>>>>>>>>>>>>>>>>>>>>>>>>>>>>>FOR COMPONENT NO. 01<<<<<<<<<<<<<<<<<<<<<<<<<<<<<<<<<<<<<<<<<<<<<<<<<<<<<<<


                                            -------------------------------------------
                                                      TRANSPORT STEP NO.  860
                                            -------------------------------------------

 TOTAL ELAPSED TIME SINCE BEGINNING OF SIMULATION =   43000.00    D   
 .....................................................................

                     CUMMULATIVE MASS BUDGETS AT END OF TRANSPORT STEP  860, TIME STEP    1, STRESS PERIOD    1
                     ------------------------------------------------------------------------------------------

                                                             IN                           OUT
                                                      ----------------             ----------------
                               CONSTANT CONCENTRATION:    0.000000                    0.000000    
                                        CONSTANT HEAD:   0.1701250E+10              -0.1701039E+10
                                                WELLS:    0.000000                    0.000000    
                                             RECHARGE:    0.000000                    0.000000    
                               1ST/0TH ORDER REACTION:    0.000000                    0.000000    
                                MASS STORAGE (SOLUTE):   0.2378150E+09              -0.2380267E+09
                            ---------------------------------------------------------------------------
                                              [TOTAL]:   0.1939067E+10 KG           -0.1939067E+10 KG  

                                                          NET (IN - OUT):   -398.7078    
                                                   DISCREPANCY (PERCENT):  -0.2056183E-04



 >>>>>>>>>>>>>>>>>>>>>>>>>>>>>>>>>>>>>>>>>>>>>>>>>>>>>>>FOR COMPONENT NO. 02<<<<<<<<<<<<<<<<<<<<<<<<<<<<<<<<<<<<<<<<<<<<<<<<<<<<<<<


                                            -------------------------------------------
                                                      TRANSPORT STEP NO.  860
                                            -------------------------------------------

 TOTAL ELAPSED TIME SINCE BEGINNING OF SIMULATION =   43000.00    D   
 .....................................................................

                     CUMMULATIVE MASS BUDGETS AT END OF TRANSPORT STEP  860, TIME STEP    1, STRESS PERIOD    1
                     ------------------------------------------------------------------------------------------

                                                             IN                           OUT
                                                      ----------------             ----------------
                               CONSTANT CONCENTRATION:    0.000000                    0.000000    
                                        CONSTANT HEAD:    0.000000                  -0.3677603E+12
                                                WELLS:    0.000000                    0.000000    
                                             RECHARGE:    0.000000                    0.000000    
                               1ST/0TH ORDER REACTION:   0.7116500E+12                0.000000    
                                MASS STORAGE (SOLUTE):   0.1420962E+12              -0.4859860E+12
                            ---------------------------------------------------------------------------
                                              [TOTAL]:   0.8537481E+12 KG           -0.8537482E+12 KG  

                                                          NET (IN - OUT):   -118853.8    
                                                   DISCREPANCY (PERCENT):  -0.1392141E-04
 
 SOLVING FOR HEAD 


     2 CALLS TO PCG ROUTINE FOR TIME STEP   1 IN STRESS PERIOD    1
    11 TOTAL ITERATIONS

 MAXIMUM HEAD CHANGE FOR EACH ITERATION (1 INDICATES THE FIRST INNER ITERATION):

    HEAD CHANGE    HEAD CHANGE    HEAD CHANGE    HEAD CHANGE    HEAD CHANGE 
   LAYER,ROW,COL  LAYER,ROW,COL  LAYER,ROW,COL  LAYER,ROW,COL  LAYER,ROW,COL
 ---------------------------------------------------------------------------
  1  0.1329E-01  0 -0.3762E-02  0 -0.3971E-02  0  0.6986E-02  0 -0.7724E-02
   ( 15,  1, 86)  ( 17,  1, 89)  (  8,  1, 12)  ( 11,  1, 67)  ( 11,  1, 67)
  0  0.1370E-02  0 -0.1108E-02  0 -0.1043E-02  0  0.1015E-02  0  0.1972E-03
   ( 10,  1, 50)  ( 11,  1, 55)  ( 11,  1, 70)  ( 11,  1, 70)  ( 11,  1, 49)
  1 -0.1492E-03
   ( 11,  1, 70)

 MAXIMUM RESIDUAL FOR EACH ITERATION (1 INDICATES THE FIRST INNER ITERATION):

    RESIDUAL       RESIDUAL       RESIDUAL       RESIDUAL       RESIDUAL    
   LAYER,ROW,COL  LAYER,ROW,COL  LAYER,ROW,COL  LAYER,ROW,COL  LAYER,ROW,COL
 ---------------------------------------------------------------------------
  1  0.1357E+06  0 -0.9550E+05  0 -0.8597E+05  0 -0.3085E+05  0  -6000.    
   ( 21,  1, 89)  ( 19,  1, 89)  ( 19,  1, 89)  ( 19,  1, 89)  ( 17,  1, 87)
  0   2891.      0   2488.      0   861.3      0  -332.0      0  -280.2    
   ( 22,  1, 87)  ( 22,  1, 87)  ( 22,  1, 87)  ( 18,  1, 90)  ( 18,  1, 90)
  1  -250.6    
   ( 17,  1, 89)


 FLOW MODEL IS TRANSIENT
 FLOW MODEL CONTAINS CONSTANT-HEAD CELLS


 MAXIMUM STEPSIZE DURING WHICH ANY PARTICLE CANNOT MOVE MORE THAN ONE CELL
 =  12.87    (WHEN MIN. R.F.=1)  AT K=  17, I=   1, J=  90

 MAXIMUM STEPSIZE WHICH MEETS STABILITY CRITERION OF THE ADVECTION TERM
 (FOR PURE FINITE-DIFFERENCE OPTION, MIXELM=0) 
 =  8.044    (WHEN MIN. R.F.=1)  AT K=  16, I=   1, J=  90


 TOTAL NUMBER OF POINT SOURCES/SINKS PRESENT IN THE FLOW MODEL =    30

 MAXIMUM STEPSIZE WHICH MEETS STABILITY CRITERION OF THE SINK & SOURCE TERM
 =  12.22    (WHEN MIN. R.F.=1)  AT K=  17, I=   1, J=  91

 MAXIMUM STEPSIZE WHICH MEETS STABILITY CRITERION OF THE DISPERSION TERM
 =  4.037    (WHEN MIN. R.F.=1)  AT K=  17, I=   1, J=  90
     1 CALLS TO GCG PACKAGE FOR TRANSPORT TIME STEP 861 IN FLOW TIME STEP   1 STRESS PERIOD   1
     8 TOTAL ITERATIONS
     1 CALLS TO GCG PACKAGE FOR TRANSPORT TIME STEP 861 IN FLOW TIME STEP   1 STRESS PERIOD   1
     8 TOTAL ITERATIONS
 
 SOLVING FOR HEAD 


     2 CALLS TO PCG ROUTINE FOR TIME STEP   1 IN STRESS PERIOD    1
     8 TOTAL ITERATIONS

 MAXIMUM HEAD CHANGE FOR EACH ITERATION (1 INDICATES THE FIRST INNER ITERATION):

    HEAD CHANGE    HEAD CHANGE    HEAD CHANGE    HEAD CHANGE    HEAD CHANGE 
   LAYER,ROW,COL  LAYER,ROW,COL  LAYER,ROW,COL  LAYER,ROW,COL  LAYER,ROW,COL
 ---------------------------------------------------------------------------
  1 -0.1345E-01  0  0.3695E-02  0  0.3552E-02  0  0.5603E-02  0 -0.7512E-02
   ( 15,  1, 86)  ( 17,  1, 89)  (  8,  1, 12)  ( 11,  1, 49)  ( 11,  1, 49)
  0  0.2091E-02  0  0.9298E-03  1 -0.4865E-03
   ( 11,  1, 49)  ( 11,  1, 70)  ( 11,  1, 46)

 MAXIMUM RESIDUAL FOR EACH ITERATION (1 INDICATES THE FIRST INNER ITERATION):

    RESIDUAL       RESIDUAL       RESIDUAL       RESIDUAL       RESIDUAL    
   LAYER,ROW,COL  LAYER,ROW,COL  LAYER,ROW,COL  LAYER,ROW,COL  LAYER,ROW,COL
 ---------------------------------------------------------------------------
  1 -0.1363E+06  0  0.9628E+05  0  0.9540E+05  0  0.1424E+05  0  -4073.    
   ( 21,  1, 89)  ( 19,  1, 89)  ( 19,  1, 89)  ( 19,  1, 89)  ( 18,  1, 89)
  0  -2786.      0  -2032.      1  -1805.    
   ( 22,  1, 87)  ( 22,  1, 87)  ( 22,  1, 87)


 FLOW MODEL IS TRANSIENT
 FLOW MODEL CONTAINS CONSTANT-HEAD CELLS


 MAXIMUM STEPSIZE DURING WHICH ANY PARTICLE CANNOT MOVE MORE THAN ONE CELL
 =  13.24    (WHEN MIN. R.F.=1)  AT K=  17, I=   1, J=  90

 MAXIMUM STEPSIZE WHICH MEETS STABILITY CRITERION OF THE ADVECTION TERM
 (FOR PURE FINITE-DIFFERENCE OPTION, MIXELM=0) 
 =  8.015    (WHEN MIN. R.F.=1)  AT K=  16, I=   1, J=  90


 TOTAL NUMBER OF POINT SOURCES/SINKS PRESENT IN THE FLOW MODEL =    30

 MAXIMUM STEPSIZE WHICH MEETS STABILITY CRITERION OF THE SINK & SOURCE TERM
 =  12.18    (WHEN MIN. R.F.=1)  AT K=  17, I=   1, J=  91

 MAXIMUM STEPSIZE WHICH MEETS STABILITY CRITERION OF THE DISPERSION TERM
 =  4.375    (WHEN MIN. R.F.=1)  AT K=  17, I=   1, J=  90
     1 CALLS TO GCG PACKAGE FOR TRANSPORT TIME STEP 862 IN FLOW TIME STEP   1 STRESS PERIOD   1
     8 TOTAL ITERATIONS
     1 CALLS TO GCG PACKAGE FOR TRANSPORT TIME STEP 862 IN FLOW TIME STEP   1 STRESS PERIOD   1
     8 TOTAL ITERATIONS
 
 SOLVING FOR HEAD 


     2 CALLS TO PCG ROUTINE FOR TIME STEP   1 IN STRESS PERIOD    1
     9 TOTAL ITERATIONS

 MAXIMUM HEAD CHANGE FOR EACH ITERATION (1 INDICATES THE FIRST INNER ITERATION):

    HEAD CHANGE    HEAD CHANGE    HEAD CHANGE    HEAD CHANGE    HEAD CHANGE 
   LAYER,ROW,COL  LAYER,ROW,COL  LAYER,ROW,COL  LAYER,ROW,COL  LAYER,ROW,COL
 ---------------------------------------------------------------------------
  1  0.1371E-01  0  0.3937E-02  0 -0.3075E-02  0 -0.1030E-01  0  0.9156E-02
   ( 15,  1, 86)  (  5,  1, 47)  (  8,  1, 12)  (  8,  1, 49)  (  8,  1, 49)
  0 -0.1878E-02  0 -0.1217E-02  0 -0.7389E-03  1  0.6287E-03
   ( 11,  1, 68)  ( 11,  1, 54)  ( 11,  1, 64)  ( 11,  1, 64)

 MAXIMUM RESIDUAL FOR EACH ITERATION (1 INDICATES THE FIRST INNER ITERATION):

    RESIDUAL       RESIDUAL       RESIDUAL       RESIDUAL       RESIDUAL    
   LAYER,ROW,COL  LAYER,ROW,COL  LAYER,ROW,COL  LAYER,ROW,COL  LAYER,ROW,COL
 ---------------------------------------------------------------------------
  1  0.1337E+06  0 -0.9404E+05  0 -0.9307E+05  0 -0.5276E+05  0  -5791.    
   ( 21,  1, 89)  ( 19,  1, 89)  ( 19,  1, 89)  ( 19,  1, 89)  ( 17,  1, 87)
  0   2888.      0   2632.      0   837.7      1   734.4    
   ( 22,  1, 87)  ( 22,  1, 87)  ( 22,  1, 87)  ( 22,  1, 87)


 FLOW MODEL IS TRANSIENT
 FLOW MODEL CONTAINS CONSTANT-HEAD CELLS


 MAXIMUM STEPSIZE DURING WHICH ANY PARTICLE CANNOT MOVE MORE THAN ONE CELL
 =  12.91    (WHEN MIN. R.F.=1)  AT K=  17, I=   1, J=  90

 MAXIMUM STEPSIZE WHICH MEETS STABILITY CRITERION OF THE ADVECTION TERM
 (FOR PURE FINITE-DIFFERENCE OPTION, MIXELM=0) 
 =  8.058    (WHEN MIN. R.F.=1)  AT K=  16, I=   1, J=  90


 TOTAL NUMBER OF POINT SOURCES/SINKS PRESENT IN THE FLOW MODEL =    30

 MAXIMUM STEPSIZE WHICH MEETS STABILITY CRITERION OF THE SINK & SOURCE TERM
 =  12.27    (WHEN MIN. R.F.=1)  AT K=  17, I=   1, J=  91

 MAXIMUM STEPSIZE WHICH MEETS STABILITY CRITERION OF THE DISPERSION TERM
 =  4.052    (WHEN MIN. R.F.=1)  AT K=  17, I=   1, J=  90
     1 CALLS TO GCG PACKAGE FOR TRANSPORT TIME STEP 863 IN FLOW TIME STEP   1 STRESS PERIOD   1
     8 TOTAL ITERATIONS
     1 CALLS TO GCG PACKAGE FOR TRANSPORT TIME STEP 863 IN FLOW TIME STEP   1 STRESS PERIOD   1
     8 TOTAL ITERATIONS
 
 SOLVING FOR HEAD 


     2 CALLS TO PCG ROUTINE FOR TIME STEP   1 IN STRESS PERIOD    1
     9 TOTAL ITERATIONS

 MAXIMUM HEAD CHANGE FOR EACH ITERATION (1 INDICATES THE FIRST INNER ITERATION):

    HEAD CHANGE    HEAD CHANGE    HEAD CHANGE    HEAD CHANGE    HEAD CHANGE 
   LAYER,ROW,COL  LAYER,ROW,COL  LAYER,ROW,COL  LAYER,ROW,COL  LAYER,ROW,COL
 ---------------------------------------------------------------------------
  1 -0.1357E-01  0  0.3923E-02  0  0.3674E-02  0  0.8739E-02  0 -0.9458E-02
   ( 15,  1, 86)  ( 17,  1, 89)  (  8,  1, 12)  ( 11,  1, 49)  ( 11,  1, 49)
  0  0.2389E-02  0 -0.1036E-02  0  0.7709E-03  1 -0.3297E-03
   ( 11,  1, 53)  ( 11,  1, 53)  ( 11,  1, 53)  ( 11,  1, 70)

 MAXIMUM RESIDUAL FOR EACH ITERATION (1 INDICATES THE FIRST INNER ITERATION):

    RESIDUAL       RESIDUAL       RESIDUAL       RESIDUAL       RESIDUAL    
   LAYER,ROW,COL  LAYER,ROW,COL  LAYER,ROW,COL  LAYER,ROW,COL  LAYER,ROW,COL
 ---------------------------------------------------------------------------
  1 -0.1365E+06  0  0.9718E+05  0  0.9631E+05  0  0.2432E+05  0   5107.    
   ( 21,  1, 89)  ( 19,  1, 89)  ( 19,  1, 89)  ( 19,  1, 89)  ( 17,  1, 87)
  0  -2832.      0  -2443.      0  -786.5      1  -685.3    
   ( 22,  1, 87)  ( 22,  1, 87)  ( 22,  1, 87)  ( 22,  1, 87)


 FLOW MODEL IS TRANSIENT
 FLOW MODEL CONTAINS CONSTANT-HEAD CELLS


 MAXIMUM STEPSIZE DURING WHICH ANY PARTICLE CANNOT MOVE MORE THAN ONE CELL
 =  13.23    (WHEN MIN. R.F.=1)  AT K=  17, I=   1, J=  90

 MAXIMUM STEPSIZE WHICH MEETS STABILITY CRITERION OF THE ADVECTION TERM
 (FOR PURE FINITE-DIFFERENCE OPTION, MIXELM=0) 
 =  8.008    (WHEN MIN. R.F.=1)  AT K=  16, I=   1, J=  90


 TOTAL NUMBER OF POINT SOURCES/SINKS PRESENT IN THE FLOW MODEL =    30

 MAXIMUM STEPSIZE WHICH MEETS STABILITY CRITERION OF THE SINK & SOURCE TERM
 =  12.19    (WHEN MIN. R.F.=1)  AT K=  17, I=   1, J=  91

 MAXIMUM STEPSIZE WHICH MEETS STABILITY CRITERION OF THE DISPERSION TERM
 =  4.372    (WHEN MIN. R.F.=1)  AT K=  17, I=   1, J=  90
     1 CALLS TO GCG PACKAGE FOR TRANSPORT TIME STEP 864 IN FLOW TIME STEP   1 STRESS PERIOD   1
     7 TOTAL ITERATIONS
     1 CALLS TO GCG PACKAGE FOR TRANSPORT TIME STEP 864 IN FLOW TIME STEP   1 STRESS PERIOD   1
     8 TOTAL ITERATIONS
 
 SOLVING FOR HEAD 


     2 CALLS TO PCG ROUTINE FOR TIME STEP   1 IN STRESS PERIOD    1
     8 TOTAL ITERATIONS

 MAXIMUM HEAD CHANGE FOR EACH ITERATION (1 INDICATES THE FIRST INNER ITERATION):

    HEAD CHANGE    HEAD CHANGE    HEAD CHANGE    HEAD CHANGE    HEAD CHANGE 
   LAYER,ROW,COL  LAYER,ROW,COL  LAYER,ROW,COL  LAYER,ROW,COL  LAYER,ROW,COL
 ---------------------------------------------------------------------------
  1  0.1336E-01  0 -0.3638E-02  0 -0.3334E-02  0  0.6786E-02  0  0.8248E-02
   ( 15,  1, 86)  ( 17,  1, 89)  (  6,  1, 12)  ( 11,  1, 35)  ( 10,  1, 46)
  0  0.1466E-02  0 -0.8260E-03  1  0.5335E-03
   ( 11,  1, 42)  ( 11,  1, 42)  ( 11,  1, 43)

 MAXIMUM RESIDUAL FOR EACH ITERATION (1 INDICATES THE FIRST INNER ITERATION):

    RESIDUAL       RESIDUAL       RESIDUAL       RESIDUAL       RESIDUAL    
   LAYER,ROW,COL  LAYER,ROW,COL  LAYER,ROW,COL  LAYER,ROW,COL  LAYER,ROW,COL
 ---------------------------------------------------------------------------
  1  0.1347E+06  0 -0.9486E+05  0 -0.8699E+05  0 -0.3753E+05  0  -6082.    
   ( 21,  1, 89)  ( 19,  1, 89)  ( 19,  1, 89)  ( 19,  1, 89)  ( 17,  1, 87)
  0   2880.      0   2454.      1   2070.    
   ( 22,  1, 87)  ( 22,  1, 87)  ( 22,  1, 87)


 FLOW MODEL IS TRANSIENT
 FLOW MODEL CONTAINS CONSTANT-HEAD CELLS


 MAXIMUM STEPSIZE DURING WHICH ANY PARTICLE CANNOT MOVE MORE THAN ONE CELL
 =  12.84    (WHEN MIN. R.F.=1)  AT K=  17, I=   1, J=  90

 MAXIMUM STEPSIZE WHICH MEETS STABILITY CRITERION OF THE ADVECTION TERM
 (FOR PURE FINITE-DIFFERENCE OPTION, MIXELM=0) 
 =  8.029    (WHEN MIN. R.F.=1)  AT K=  16, I=   1, J=  90


 TOTAL NUMBER OF POINT SOURCES/SINKS PRESENT IN THE FLOW MODEL =    30

 MAXIMUM STEPSIZE WHICH MEETS STABILITY CRITERION OF THE SINK & SOURCE TERM
 =  12.20    (WHEN MIN. R.F.=1)  AT K=  17, I=   1, J=  91

 MAXIMUM STEPSIZE WHICH MEETS STABILITY CRITERION OF THE DISPERSION TERM
 =  4.026    (WHEN MIN. R.F.=1)  AT K=  17, I=   1, J=  90
     1 CALLS TO GCG PACKAGE FOR TRANSPORT TIME STEP 865 IN FLOW TIME STEP   1 STRESS PERIOD   1
     8 TOTAL ITERATIONS
  MAXIMUM CONCENTRATION CHANGES FOR EACH ITERATION:
  MAX. CHANGE LAYER,ROW,COL MAX. CHANGE LAYER,ROW,COL MAX. CHANGE LAYER,ROW,COL MAX. CHANGE LAYER,ROW,COL MAX. CHANGE LAYER,ROW,COL
 ------------------------------------------------------------------------------------------------------------------------------------
   0.5207E-01 ( 20,  1, 87)  0.4177E-02 ( 19,  1, 89)  0.2127E-02 ( 17,  1, 86)  0.4851E-03 ( 20,  1, 89)  0.9781E-04 ( 16,  1, 89)
   0.2055E-04 ( 20,  1, 89)  0.1827E-04 ( 16,  1, 90)  0.6359E-06 ( 17,  1, 90)
     1 CALLS TO GCG PACKAGE FOR TRANSPORT TIME STEP 865 IN FLOW TIME STEP   1 STRESS PERIOD   1
     8 TOTAL ITERATIONS
  MAXIMUM CONCENTRATION CHANGES FOR EACH ITERATION:
  MAX. CHANGE LAYER,ROW,COL MAX. CHANGE LAYER,ROW,COL MAX. CHANGE LAYER,ROW,COL MAX. CHANGE LAYER,ROW,COL MAX. CHANGE LAYER,ROW,COL
 ------------------------------------------------------------------------------------------------------------------------------------
   0.5394E-01 ( 20,  1, 87)  0.4321E-02 ( 19,  1, 89)  0.2079E-02 ( 18,  1, 86)  0.4303E-03 ( 20,  1, 89)  0.9734E-04 ( 16,  1, 89)
   0.1402E-04 ( 23,  1, 87)  0.1596E-04 ( 16,  1, 90)  0.7831E-06 ( 17,  1, 90)
 
 SOLVING FOR HEAD 


     2 CALLS TO PCG ROUTINE FOR TIME STEP   1 IN STRESS PERIOD    1
     8 TOTAL ITERATIONS

 MAXIMUM HEAD CHANGE FOR EACH ITERATION (1 INDICATES THE FIRST INNER ITERATION):

    HEAD CHANGE    HEAD CHANGE    HEAD CHANGE    HEAD CHANGE    HEAD CHANGE 
   LAYER,ROW,COL  LAYER,ROW,COL  LAYER,ROW,COL  LAYER,ROW,COL  LAYER,ROW,COL
 ---------------------------------------------------------------------------
  1 -0.1377E-01  0 -0.5059E-02  0  0.5306E-02  0 -0.1127E-01  0  0.1003E-01
   ( 15,  1, 86)  (  8,  1, 12)  (  8,  1, 12)  ( 11,  1, 43)  ( 11,  1, 49)
  0  0.2459E-02  0 -0.8488E-03  1  0.4798E-03
   ( 11,  1, 64)  (  6,  1, 37)  ( 11,  1, 70)

 MAXIMUM RESIDUAL FOR EACH ITERATION (1 INDICATES THE FIRST INNER ITERATION):

    RESIDUAL       RESIDUAL       RESIDUAL       RESIDUAL       RESIDUAL    
   LAYER,ROW,COL  LAYER,ROW,COL  LAYER,ROW,COL  LAYER,ROW,COL  LAYER,ROW,COL
 ---------------------------------------------------------------------------
  1 -0.1361E+06  0  0.9613E+05  0  0.9562E+05  0  0.5784E+05  0   5364.    
   ( 21,  1, 89)  ( 19,  1, 89)  ( 19,  1, 89)  ( 19,  1, 89)  ( 17,  1, 87)
  0  -2761.      0  -2594.      1  -1698.    
   ( 17,  1, 88)  ( 22,  1, 87)  ( 22,  1, 87)


 FLOW MODEL IS TRANSIENT
 FLOW MODEL CONTAINS CONSTANT-HEAD CELLS


 MAXIMUM STEPSIZE DURING WHICH ANY PARTICLE CANNOT MOVE MORE THAN ONE CELL
 =  13.15    (WHEN MIN. R.F.=1)  AT K=  17, I=   1, J=  90

 MAXIMUM STEPSIZE WHICH MEETS STABILITY CRITERION OF THE ADVECTION TERM
 (FOR PURE FINITE-DIFFERENCE OPTION, MIXELM=0) 
 =  7.977    (WHEN MIN. R.F.=1)  AT K=  16, I=   1, J=  90


 TOTAL NUMBER OF POINT SOURCES/SINKS PRESENT IN THE FLOW MODEL =    30

 MAXIMUM STEPSIZE WHICH MEETS STABILITY CRITERION OF THE SINK & SOURCE TERM
 =  12.08    (WHEN MIN. R.F.=1)  AT K=  17, I=   1, J=  91

 MAXIMUM STEPSIZE WHICH MEETS STABILITY CRITERION OF THE DISPERSION TERM
 =  4.338    (WHEN MIN. R.F.=1)  AT K=  17, I=   1, J=  90
     1 CALLS TO GCG PACKAGE FOR TRANSPORT TIME STEP 866 IN FLOW TIME STEP   1 STRESS PERIOD   1
     8 TOTAL ITERATIONS
     1 CALLS TO GCG PACKAGE FOR TRANSPORT TIME STEP 866 IN FLOW TIME STEP   1 STRESS PERIOD   1
     8 TOTAL ITERATIONS
 
 SOLVING FOR HEAD 


     2 CALLS TO PCG ROUTINE FOR TIME STEP   1 IN STRESS PERIOD    1
     9 TOTAL ITERATIONS

 MAXIMUM HEAD CHANGE FOR EACH ITERATION (1 INDICATES THE FIRST INNER ITERATION):

    HEAD CHANGE    HEAD CHANGE    HEAD CHANGE    HEAD CHANGE    HEAD CHANGE 
   LAYER,ROW,COL  LAYER,ROW,COL  LAYER,ROW,COL  LAYER,ROW,COL  LAYER,ROW,COL
 ---------------------------------------------------------------------------
  1  0.1376E-01  0  0.8877E-02  0 -0.3386E-02  0 -0.8908E-02  0  0.5972E-02
   ( 15,  1, 86)  (  6,  1, 42)  (  7,  1, 12)  (  7,  1, 43)  (  9,  1, 50)
  0  0.5496E-02  0 -0.1725E-02  0 -0.8620E-03  1 -0.7040E-03
   ( 11,  1, 49)  ( 11,  1, 49)  ( 11,  1, 70)  ( 11,  1, 53)

 MAXIMUM RESIDUAL FOR EACH ITERATION (1 INDICATES THE FIRST INNER ITERATION):

    RESIDUAL       RESIDUAL       RESIDUAL       RESIDUAL       RESIDUAL    
   LAYER,ROW,COL  LAYER,ROW,COL  LAYER,ROW,COL  LAYER,ROW,COL  LAYER,ROW,COL
 ---------------------------------------------------------------------------
  1  0.1351E+06  0 -0.9646E+05  0 -0.9546E+05  0 -0.8049E+05  0   6931.    
   ( 21,  1, 89)  ( 19,  1, 89)  ( 19,  1, 89)  ( 19,  1, 89)  ( 17,  1, 88)
  0   3263.      0   2524.      0   1728.      1   1507.    
   ( 17,  1, 88)  ( 22,  1, 87)  ( 22,  1, 87)  ( 22,  1, 87)


 FLOW MODEL IS TRANSIENT
 FLOW MODEL CONTAINS CONSTANT-HEAD CELLS


 MAXIMUM STEPSIZE DURING WHICH ANY PARTICLE CANNOT MOVE MORE THAN ONE CELL
 =  12.85    (WHEN MIN. R.F.=1)  AT K=  17, I=   1, J=  90

 MAXIMUM STEPSIZE WHICH MEETS STABILITY CRITERION OF THE ADVECTION TERM
 (FOR PURE FINITE-DIFFERENCE OPTION, MIXELM=0) 
 =  8.038    (WHEN MIN. R.F.=1)  AT K=  16, I=   1, J=  90


 TOTAL NUMBER OF POINT SOURCES/SINKS PRESENT IN THE FLOW MODEL =    30

 MAXIMUM STEPSIZE WHICH MEETS STABILITY CRITERION OF THE SINK & SOURCE TERM
 =  12.19    (WHEN MIN. R.F.=1)  AT K=  17, I=   1, J=  91

 MAXIMUM STEPSIZE WHICH MEETS STABILITY CRITERION OF THE DISPERSION TERM
 =  4.025    (WHEN MIN. R.F.=1)  AT K=  17, I=   1, J=  90
     1 CALLS TO GCG PACKAGE FOR TRANSPORT TIME STEP 867 IN FLOW TIME STEP   1 STRESS PERIOD   1
     8 TOTAL ITERATIONS
     1 CALLS TO GCG PACKAGE FOR TRANSPORT TIME STEP 867 IN FLOW TIME STEP   1 STRESS PERIOD   1
     8 TOTAL ITERATIONS
 
 SOLVING FOR HEAD 


     2 CALLS TO PCG ROUTINE FOR TIME STEP   1 IN STRESS PERIOD    1
     9 TOTAL ITERATIONS

 MAXIMUM HEAD CHANGE FOR EACH ITERATION (1 INDICATES THE FIRST INNER ITERATION):

    HEAD CHANGE    HEAD CHANGE    HEAD CHANGE    HEAD CHANGE    HEAD CHANGE 
   LAYER,ROW,COL  LAYER,ROW,COL  LAYER,ROW,COL  LAYER,ROW,COL  LAYER,ROW,COL
 ---------------------------------------------------------------------------
  1 -0.1365E-01  0  0.4108E-02  0  0.3973E-02  0  0.1273E-01  0 -0.1341E-01
   ( 15,  1, 86)  ( 17,  1, 89)  (  8,  1, 12)  ( 11,  1, 52)  ( 11,  1, 52)
  0  0.2215E-02  0  0.1076E-02  0  0.6821E-03  1 -0.3203E-03
   ( 11,  1, 49)  ( 11,  1, 65)  ( 11,  1, 58)  ( 11,  1, 55)

 MAXIMUM RESIDUAL FOR EACH ITERATION (1 INDICATES THE FIRST INNER ITERATION):

    RESIDUAL       RESIDUAL       RESIDUAL       RESIDUAL       RESIDUAL    
   LAYER,ROW,COL  LAYER,ROW,COL  LAYER,ROW,COL  LAYER,ROW,COL  LAYER,ROW,COL
 ---------------------------------------------------------------------------
  1 -0.1324E+06  0  0.9345E+05  0  0.9272E+05  0  0.2630E+05  0  -5148.    
   ( 21,  1, 89)  ( 19,  1, 89)  ( 19,  1, 89)  ( 19,  1, 89)  ( 17,  1, 88)
  0  -2787.      0  -2456.      0  -772.7      1  -690.5    
   ( 22,  1, 87)  ( 22,  1, 87)  ( 22,  1, 87)  ( 22,  1, 87)


 FLOW MODEL IS TRANSIENT
 FLOW MODEL CONTAINS CONSTANT-HEAD CELLS


 MAXIMUM STEPSIZE DURING WHICH ANY PARTICLE CANNOT MOVE MORE THAN ONE CELL
 =  13.22    (WHEN MIN. R.F.=1)  AT K=  17, I=   1, J=  90

 MAXIMUM STEPSIZE WHICH MEETS STABILITY CRITERION OF THE ADVECTION TERM
 (FOR PURE FINITE-DIFFERENCE OPTION, MIXELM=0) 
 =  7.998    (WHEN MIN. R.F.=1)  AT K=  16, I=   1, J=  90


 TOTAL NUMBER OF POINT SOURCES/SINKS PRESENT IN THE FLOW MODEL =    30

 MAXIMUM STEPSIZE WHICH MEETS STABILITY CRITERION OF THE SINK & SOURCE TERM
 =  12.15    (WHEN MIN. R.F.=1)  AT K=  17, I=   1, J=  91

 MAXIMUM STEPSIZE WHICH MEETS STABILITY CRITERION OF THE DISPERSION TERM
 =  4.375    (WHEN MIN. R.F.=1)  AT K=  17, I=   1, J=  90
     1 CALLS TO GCG PACKAGE FOR TRANSPORT TIME STEP 868 IN FLOW TIME STEP   1 STRESS PERIOD   1
     9 TOTAL ITERATIONS
     1 CALLS TO GCG PACKAGE FOR TRANSPORT TIME STEP 868 IN FLOW TIME STEP   1 STRESS PERIOD   1
     8 TOTAL ITERATIONS
 
 SOLVING FOR HEAD 


     2 CALLS TO PCG ROUTINE FOR TIME STEP   1 IN STRESS PERIOD    1
     8 TOTAL ITERATIONS

 MAXIMUM HEAD CHANGE FOR EACH ITERATION (1 INDICATES THE FIRST INNER ITERATION):

    HEAD CHANGE    HEAD CHANGE    HEAD CHANGE    HEAD CHANGE    HEAD CHANGE 
   LAYER,ROW,COL  LAYER,ROW,COL  LAYER,ROW,COL  LAYER,ROW,COL  LAYER,ROW,COL
 ---------------------------------------------------------------------------
  1  0.1335E-01  0 -0.3924E-02  0 -0.2345E-02  0 -0.7329E-02  0  0.7793E-02
   ( 15,  1, 86)  ( 17,  1, 89)  (  7,  1, 12)  ( 11,  1, 68)  ( 11,  1, 68)
  0  0.1399E-02  0 -0.9750E-03  1 -0.7698E-03
   ( 11,  1, 49)  ( 11,  1, 70)  ( 11,  1, 59)

 MAXIMUM RESIDUAL FOR EACH ITERATION (1 INDICATES THE FIRST INNER ITERATION):

    RESIDUAL       RESIDUAL       RESIDUAL       RESIDUAL       RESIDUAL    
   LAYER,ROW,COL  LAYER,ROW,COL  LAYER,ROW,COL  LAYER,ROW,COL  LAYER,ROW,COL
 ---------------------------------------------------------------------------
  1  0.1341E+06  0 -0.9477E+05  0 -0.9318E+05  0 -0.3138E+05  0  -5949.    
   ( 21,  1, 89)  ( 19,  1, 89)  ( 19,  1, 89)  ( 19,  1, 89)  ( 17,  1, 87)
  0   2812.      0   2441.      1   2040.    
   ( 22,  1, 87)  ( 22,  1, 87)  ( 22,  1, 87)


 FLOW MODEL IS TRANSIENT
 FLOW MODEL CONTAINS CONSTANT-HEAD CELLS


 MAXIMUM STEPSIZE DURING WHICH ANY PARTICLE CANNOT MOVE MORE THAN ONE CELL
 =  12.83    (WHEN MIN. R.F.=1)  AT K=  17, I=   1, J=  90

 MAXIMUM STEPSIZE WHICH MEETS STABILITY CRITERION OF THE ADVECTION TERM
 (FOR PURE FINITE-DIFFERENCE OPTION, MIXELM=0) 
 =  8.025    (WHEN MIN. R.F.=1)  AT K=  16, I=   1, J=  90


 TOTAL NUMBER OF POINT SOURCES/SINKS PRESENT IN THE FLOW MODEL =    30

 MAXIMUM STEPSIZE WHICH MEETS STABILITY CRITERION OF THE SINK & SOURCE TERM
 =  12.18    (WHEN MIN. R.F.=1)  AT K=  17, I=   1, J=  91

 MAXIMUM STEPSIZE WHICH MEETS STABILITY CRITERION OF THE DISPERSION TERM
 =  4.020    (WHEN MIN. R.F.=1)  AT K=  17, I=   1, J=  90
     1 CALLS TO GCG PACKAGE FOR TRANSPORT TIME STEP 869 IN FLOW TIME STEP   1 STRESS PERIOD   1
     8 TOTAL ITERATIONS
     1 CALLS TO GCG PACKAGE FOR TRANSPORT TIME STEP 869 IN FLOW TIME STEP   1 STRESS PERIOD   1
     8 TOTAL ITERATIONS
 
 SOLVING FOR HEAD 


     2 CALLS TO PCG ROUTINE FOR TIME STEP   1 IN STRESS PERIOD    1
     8 TOTAL ITERATIONS

 MAXIMUM HEAD CHANGE FOR EACH ITERATION (1 INDICATES THE FIRST INNER ITERATION):

    HEAD CHANGE    HEAD CHANGE    HEAD CHANGE    HEAD CHANGE    HEAD CHANGE 
   LAYER,ROW,COL  LAYER,ROW,COL  LAYER,ROW,COL  LAYER,ROW,COL  LAYER,ROW,COL
 ---------------------------------------------------------------------------
  1 -0.1371E-01  0 -0.7065E-02  0  0.4488E-02  0  0.1498E-01  0 -0.1246E-01
   ( 15,  1, 86)  ( 11,  1, 59)  (  8,  1, 12)  ( 11,  1, 59)  ( 11,  1, 59)
  0  0.2751E-02  0 -0.9218E-03  1  0.6361E-03
   ( 11,  1, 69)  (  6,  1, 42)  ( 11,  1, 65)

 MAXIMUM RESIDUAL FOR EACH ITERATION (1 INDICATES THE FIRST INNER ITERATION):

    RESIDUAL       RESIDUAL       RESIDUAL       RESIDUAL       RESIDUAL    
   LAYER,ROW,COL  LAYER,ROW,COL  LAYER,ROW,COL  LAYER,ROW,COL  LAYER,ROW,COL
 ---------------------------------------------------------------------------
  1 -0.1352E+06  0  0.9535E+05  0  0.9468E+05  0  0.6369E+05  0   5737.    
   ( 21,  1, 89)  ( 19,  1, 89)  ( 19,  1, 89)  ( 19,  1, 89)  ( 17,  1, 87)
  0  -2936.      0  -2567.      1  -1430.    
   ( 17,  1, 88)  ( 22,  1, 87)  ( 22,  1, 87)


 FLOW MODEL IS TRANSIENT
 FLOW MODEL CONTAINS CONSTANT-HEAD CELLS


 MAXIMUM STEPSIZE DURING WHICH ANY PARTICLE CANNOT MOVE MORE THAN ONE CELL
 =  13.16    (WHEN MIN. R.F.=1)  AT K=  17, I=   1, J=  90

 MAXIMUM STEPSIZE WHICH MEETS STABILITY CRITERION OF THE ADVECTION TERM
 (FOR PURE FINITE-DIFFERENCE OPTION, MIXELM=0) 
 =  7.978    (WHEN MIN. R.F.=1)  AT K=  16, I=   1, J=  90


 TOTAL NUMBER OF POINT SOURCES/SINKS PRESENT IN THE FLOW MODEL =    30

 MAXIMUM STEPSIZE WHICH MEETS STABILITY CRITERION OF THE SINK & SOURCE TERM
 =  12.09    (WHEN MIN. R.F.=1)  AT K=  17, I=   1, J=  91

 MAXIMUM STEPSIZE WHICH MEETS STABILITY CRITERION OF THE DISPERSION TERM
 =  4.347    (WHEN MIN. R.F.=1)  AT K=  17, I=   1, J=  90
     1 CALLS TO GCG PACKAGE FOR TRANSPORT TIME STEP 870 IN FLOW TIME STEP   1 STRESS PERIOD   1
     8 TOTAL ITERATIONS
  MAXIMUM CONCENTRATION CHANGES FOR EACH ITERATION:
  MAX. CHANGE LAYER,ROW,COL MAX. CHANGE LAYER,ROW,COL MAX. CHANGE LAYER,ROW,COL MAX. CHANGE LAYER,ROW,COL MAX. CHANGE LAYER,ROW,COL
 ------------------------------------------------------------------------------------------------------------------------------------
   0.4847E-01 ( 20,  1, 87)  0.3266E-02 ( 19,  1, 87)  0.2149E-02 ( 18,  1, 87)  0.2147E-03 ( 16,  1, 88)  0.1454E-03 ( 16,  1, 89)
   0.2718E-04 ( 16,  1, 90)  0.3158E-05 ( 21,  1, 78)  0.7147E-07 ( 15,  1, 89)
     1 CALLS TO GCG PACKAGE FOR TRANSPORT TIME STEP 870 IN FLOW TIME STEP   1 STRESS PERIOD   1
     8 TOTAL ITERATIONS
  MAXIMUM CONCENTRATION CHANGES FOR EACH ITERATION:
  MAX. CHANGE LAYER,ROW,COL MAX. CHANGE LAYER,ROW,COL MAX. CHANGE LAYER,ROW,COL MAX. CHANGE LAYER,ROW,COL MAX. CHANGE LAYER,ROW,COL
 ------------------------------------------------------------------------------------------------------------------------------------
   0.5034E-01 ( 20,  1, 87)  0.3275E-02 ( 19,  1, 87)  0.2210E-02 ( 18,  1, 87)  0.2119E-03 ( 16,  1, 88)  0.1298E-03 ( 17,  1, 89)
   0.3071E-04 ( 16,  1, 90)  0.4288E-05 ( 17,  1, 90)  0.5543E-06 ( 16,  1, 89)



 >>>>>>>>>>>>>>>>>>>>>>>>>>>>>>>>>>>>>>>>>>>>>>>>>>>>>>>FOR COMPONENT NO. 01<<<<<<<<<<<<<<<<<<<<<<<<<<<<<<<<<<<<<<<<<<<<<<<<<<<<<<<


                                            -------------------------------------------
                                                      TRANSPORT STEP NO.  870
                                            -------------------------------------------

 TOTAL ELAPSED TIME SINCE BEGINNING OF SIMULATION =   43500.00    D   
 .....................................................................

                     CUMMULATIVE MASS BUDGETS AT END OF TRANSPORT STEP  870, TIME STEP    1, STRESS PERIOD    1
                     ------------------------------------------------------------------------------------------

                                                             IN                           OUT
                                                      ----------------             ----------------
                               CONSTANT CONCENTRATION:    0.000000                    0.000000    
                                        CONSTANT HEAD:   0.1721035E+10              -0.1720823E+10
                                                WELLS:    0.000000                    0.000000    
                                             RECHARGE:    0.000000                    0.000000    
                               1ST/0TH ORDER REACTION:    0.000000                    0.000000    
                                MASS STORAGE (SOLUTE):   0.2405820E+09              -0.2407945E+09
                            ---------------------------------------------------------------------------
                                              [TOTAL]:   0.1961619E+10 KG           -0.1961619E+10 KG  

                                                          NET (IN - OUT):   -415.8676    
                                                   DISCREPANCY (PERCENT):  -0.2120022E-04



 >>>>>>>>>>>>>>>>>>>>>>>>>>>>>>>>>>>>>>>>>>>>>>>>>>>>>>>FOR COMPONENT NO. 02<<<<<<<<<<<<<<<<<<<<<<<<<<<<<<<<<<<<<<<<<<<<<<<<<<<<<<<


                                            -------------------------------------------
                                                      TRANSPORT STEP NO.  870
                                            -------------------------------------------

 TOTAL ELAPSED TIME SINCE BEGINNING OF SIMULATION =   43500.00    D   
 .....................................................................

                     CUMMULATIVE MASS BUDGETS AT END OF TRANSPORT STEP  870, TIME STEP    1, STRESS PERIOD    1
                     ------------------------------------------------------------------------------------------

                                                             IN                           OUT
                                                      ----------------             ----------------
                               CONSTANT CONCENTRATION:    0.000000                    0.000000    
                                        CONSTANT HEAD:    0.000000                  -0.3746477E+12
                                                WELLS:    0.000000                    0.000000    
                                             RECHARGE:    0.000000                    0.000000    
                               1ST/0TH ORDER REACTION:   0.7199250E+12                0.000000    
                                MASS STORAGE (SOLUTE):   0.1452954E+12              -0.4905729E+12
                            ---------------------------------------------------------------------------
                                              [TOTAL]:   0.8652224E+12 KG           -0.8652225E+12 KG  

                                                          NET (IN - OUT):   -121150.2    
                                                   DISCREPANCY (PERCENT):  -0.1400221E-04
 
 SOLVING FOR HEAD 


     2 CALLS TO PCG ROUTINE FOR TIME STEP   1 IN STRESS PERIOD    1
    10 TOTAL ITERATIONS

 MAXIMUM HEAD CHANGE FOR EACH ITERATION (1 INDICATES THE FIRST INNER ITERATION):

    HEAD CHANGE    HEAD CHANGE    HEAD CHANGE    HEAD CHANGE    HEAD CHANGE 
   LAYER,ROW,COL  LAYER,ROW,COL  LAYER,ROW,COL  LAYER,ROW,COL  LAYER,ROW,COL
 ---------------------------------------------------------------------------
  1  0.1363E-01  0  0.7776E-02  0 -0.2979E-02  0 -0.8867E-02  0  0.6773E-02
   ( 15,  1, 86)  ( 11,  1, 65)  (  7,  1, 12)  ( 11,  1, 66)  ( 11,  1, 68)
  0 -0.6118E-02  0  0.1728E-02  0 -0.1005E-02  0  0.5763E-03  1  0.4521E-03
   ( 11,  1, 59)  ( 11,  1, 58)  ( 11,  1, 54)  ( 11,  1, 53)  ( 11,  1, 70)

 MAXIMUM RESIDUAL FOR EACH ITERATION (1 INDICATES THE FIRST INNER ITERATION):

    RESIDUAL       RESIDUAL       RESIDUAL       RESIDUAL       RESIDUAL    
   LAYER,ROW,COL  LAYER,ROW,COL  LAYER,ROW,COL  LAYER,ROW,COL  LAYER,ROW,COL
 ---------------------------------------------------------------------------
  1  0.1355E+06  0 -0.9608E+05  0 -0.9487E+05  0 -0.7893E+05  0   6969.    
   ( 21,  1, 89)  ( 19,  1, 89)  ( 19,  1, 89)  ( 19,  1, 89)  ( 17,  1, 88)
  0   3272.      0   2512.      0   1770.      0   428.1      1   363.0    
   ( 17,  1, 88)  ( 22,  1, 87)  ( 22,  1, 87)  ( 22,  1, 87)  ( 22,  1, 87)


 FLOW MODEL IS TRANSIENT
 FLOW MODEL CONTAINS CONSTANT-HEAD CELLS


 MAXIMUM STEPSIZE DURING WHICH ANY PARTICLE CANNOT MOVE MORE THAN ONE CELL
 =  12.86    (WHEN MIN. R.F.=1)  AT K=  17, I=   1, J=  90

 MAXIMUM STEPSIZE WHICH MEETS STABILITY CRITERION OF THE ADVECTION TERM
 (FOR PURE FINITE-DIFFERENCE OPTION, MIXELM=0) 
 =  8.042    (WHEN MIN. R.F.=1)  AT K=  16, I=   1, J=  90


 TOTAL NUMBER OF POINT SOURCES/SINKS PRESENT IN THE FLOW MODEL =    30

 MAXIMUM STEPSIZE WHICH MEETS STABILITY CRITERION OF THE SINK & SOURCE TERM
 =  12.20    (WHEN MIN. R.F.=1)  AT K=  17, I=   1, J=  91

 MAXIMUM STEPSIZE WHICH MEETS STABILITY CRITERION OF THE DISPERSION TERM
 =  4.031    (WHEN MIN. R.F.=1)  AT K=  17, I=   1, J=  90
     1 CALLS TO GCG PACKAGE FOR TRANSPORT TIME STEP 871 IN FLOW TIME STEP   1 STRESS PERIOD   1
     8 TOTAL ITERATIONS
     1 CALLS TO GCG PACKAGE FOR TRANSPORT TIME STEP 871 IN FLOW TIME STEP   1 STRESS PERIOD   1
     8 TOTAL ITERATIONS
 
 SOLVING FOR HEAD 


     2 CALLS TO PCG ROUTINE FOR TIME STEP   1 IN STRESS PERIOD    1
     9 TOTAL ITERATIONS

 MAXIMUM HEAD CHANGE FOR EACH ITERATION (1 INDICATES THE FIRST INNER ITERATION):

    HEAD CHANGE    HEAD CHANGE    HEAD CHANGE    HEAD CHANGE    HEAD CHANGE 
   LAYER,ROW,COL  LAYER,ROW,COL  LAYER,ROW,COL  LAYER,ROW,COL  LAYER,ROW,COL
 ---------------------------------------------------------------------------
  1 -0.1338E-01  0  0.3795E-02  0  0.2458E-02  0  0.8130E-02  0 -0.9609E-02
   ( 15,  1, 86)  ( 17,  1, 89)  (  8,  1, 12)  ( 11,  1, 52)  ( 11,  1, 52)
  0  0.1763E-02  0  0.1078E-02  0  0.6849E-03  1 -0.6252E-03
   ( 11,  1, 52)  ( 11,  1, 67)  ( 11,  1, 60)  ( 11,  1, 67)

 MAXIMUM RESIDUAL FOR EACH ITERATION (1 INDICATES THE FIRST INNER ITERATION):

    RESIDUAL       RESIDUAL       RESIDUAL       RESIDUAL       RESIDUAL    
   LAYER,ROW,COL  LAYER,ROW,COL  LAYER,ROW,COL  LAYER,ROW,COL  LAYER,ROW,COL
 ---------------------------------------------------------------------------
  1 -0.1321E+06  0  0.9359E+05  0  0.9230E+05  0  0.1839E+05  0   4933.    
   ( 21,  1, 89)  ( 19,  1, 89)  ( 19,  1, 89)  ( 19,  1, 89)  ( 17,  1, 87)
  0  -2766.      0  -2018.      0  -753.0      1  -646.6    
   ( 22,  1, 87)  ( 22,  1, 87)  ( 22,  1, 87)  ( 22,  1, 87)


 FLOW MODEL IS TRANSIENT
 FLOW MODEL CONTAINS CONSTANT-HEAD CELLS


 MAXIMUM STEPSIZE DURING WHICH ANY PARTICLE CANNOT MOVE MORE THAN ONE CELL
 =  13.24    (WHEN MIN. R.F.=1)  AT K=  17, I=   1, J=  90

 MAXIMUM STEPSIZE WHICH MEETS STABILITY CRITERION OF THE ADVECTION TERM
 (FOR PURE FINITE-DIFFERENCE OPTION, MIXELM=0) 
 =  8.011    (WHEN MIN. R.F.=1)  AT K=  16, I=   1, J=  90


 TOTAL NUMBER OF POINT SOURCES/SINKS PRESENT IN THE FLOW MODEL =    30

 MAXIMUM STEPSIZE WHICH MEETS STABILITY CRITERION OF THE SINK & SOURCE TERM
 =  12.18    (WHEN MIN. R.F.=1)  AT K=  17, I=   1, J=  91

 MAXIMUM STEPSIZE WHICH MEETS STABILITY CRITERION OF THE DISPERSION TERM
 =  4.383    (WHEN MIN. R.F.=1)  AT K=  17, I=   1, J=  90
     1 CALLS TO GCG PACKAGE FOR TRANSPORT TIME STEP 872 IN FLOW TIME STEP   1 STRESS PERIOD   1
     9 TOTAL ITERATIONS
     1 CALLS TO GCG PACKAGE FOR TRANSPORT TIME STEP 872 IN FLOW TIME STEP   1 STRESS PERIOD   1
     8 TOTAL ITERATIONS
 
 SOLVING FOR HEAD 


     2 CALLS TO PCG ROUTINE FOR TIME STEP   1 IN STRESS PERIOD    1
     9 TOTAL ITERATIONS

 MAXIMUM HEAD CHANGE FOR EACH ITERATION (1 INDICATES THE FIRST INNER ITERATION):

    HEAD CHANGE    HEAD CHANGE    HEAD CHANGE    HEAD CHANGE    HEAD CHANGE 
   LAYER,ROW,COL  LAYER,ROW,COL  LAYER,ROW,COL  LAYER,ROW,COL  LAYER,ROW,COL
 ---------------------------------------------------------------------------
  1  0.1332E-01  0 -0.3624E-02  0 -0.2403E-02  0  0.9174E-02  0 -0.8763E-02
   ( 15,  1, 86)  ( 17,  1, 89)  (  8,  1, 12)  (  8,  1, 52)  (  8,  1, 52)
  0  0.1645E-02  0 -0.1096E-02  0 -0.7072E-03  1  0.9692E-03
   ( 11,  1, 70)  ( 11,  1, 70)  ( 11,  1, 61)  ( 11,  1, 70)

 MAXIMUM RESIDUAL FOR EACH ITERATION (1 INDICATES THE FIRST INNER ITERATION):

    RESIDUAL       RESIDUAL       RESIDUAL       RESIDUAL       RESIDUAL    
   LAYER,ROW,COL  LAYER,ROW,COL  LAYER,ROW,COL  LAYER,ROW,COL  LAYER,ROW,COL
 ---------------------------------------------------------------------------
  1  0.1325E+06  0 -0.9246E+05  0 -0.9051E+05  0 -0.3738E+05  0  -5981.    
   ( 21,  1, 89)  ( 19,  1, 89)  ( 19,  1, 89)  ( 19,  1, 89)  ( 17,  1, 87)
  0   2917.      0   2471.      0   791.2      1   663.4    
   ( 22,  1, 87)  ( 22,  1, 87)  ( 22,  1, 87)  ( 22,  1, 87)


 FLOW MODEL IS TRANSIENT
 FLOW MODEL CONTAINS CONSTANT-HEAD CELLS


 MAXIMUM STEPSIZE DURING WHICH ANY PARTICLE CANNOT MOVE MORE THAN ONE CELL
 =  12.86    (WHEN MIN. R.F.=1)  AT K=  17, I=   1, J=  90

 MAXIMUM STEPSIZE WHICH MEETS STABILITY CRITERION OF THE ADVECTION TERM
 (FOR PURE FINITE-DIFFERENCE OPTION, MIXELM=0) 
 =  8.035    (WHEN MIN. R.F.=1)  AT K=  16, I=   1, J=  90


 TOTAL NUMBER OF POINT SOURCES/SINKS PRESENT IN THE FLOW MODEL =    30

 MAXIMUM STEPSIZE WHICH MEETS STABILITY CRITERION OF THE SINK & SOURCE TERM
 =  12.20    (WHEN MIN. R.F.=1)  AT K=  17, I=   1, J=  91

 MAXIMUM STEPSIZE WHICH MEETS STABILITY CRITERION OF THE DISPERSION TERM
 =  4.036    (WHEN MIN. R.F.=1)  AT K=  17, I=   1, J=  90
     1 CALLS TO GCG PACKAGE FOR TRANSPORT TIME STEP 873 IN FLOW TIME STEP   1 STRESS PERIOD   1
     8 TOTAL ITERATIONS
     1 CALLS TO GCG PACKAGE FOR TRANSPORT TIME STEP 873 IN FLOW TIME STEP   1 STRESS PERIOD   1
     8 TOTAL ITERATIONS
 
 SOLVING FOR HEAD 


     2 CALLS TO PCG ROUTINE FOR TIME STEP   1 IN STRESS PERIOD    1
     9 TOTAL ITERATIONS

 MAXIMUM HEAD CHANGE FOR EACH ITERATION (1 INDICATES THE FIRST INNER ITERATION):

    HEAD CHANGE    HEAD CHANGE    HEAD CHANGE    HEAD CHANGE    HEAD CHANGE 
   LAYER,ROW,COL  LAYER,ROW,COL  LAYER,ROW,COL  LAYER,ROW,COL  LAYER,ROW,COL
 ---------------------------------------------------------------------------
  1 -0.1342E-01  0  0.3687E-02  0  0.2793E-02  0  0.9521E-02  0 -0.1061E-01
   ( 15,  1, 86)  ( 17,  1, 89)  (  8,  1, 12)  ( 11,  1, 51)  ( 11,  1, 51)
  0  0.1606E-02  0  0.1116E-02  0  0.8413E-03  1 -0.7892E-03
   ( 11,  1, 51)  ( 11,  1, 66)  ( 11,  1, 59)  ( 11,  1, 66)

 MAXIMUM RESIDUAL FOR EACH ITERATION (1 INDICATES THE FIRST INNER ITERATION):

    RESIDUAL       RESIDUAL       RESIDUAL       RESIDUAL       RESIDUAL    
   LAYER,ROW,COL  LAYER,ROW,COL  LAYER,ROW,COL  LAYER,ROW,COL  LAYER,ROW,COL
 ---------------------------------------------------------------------------
  1 -0.1344E+06  0  0.9489E+05  0  0.9380E+05  0  0.2145E+05  0   4971.    
   ( 21,  1, 89)  ( 19,  1, 89)  ( 19,  1, 89)  ( 19,  1, 89)  ( 17,  1, 87)
  0  -2804.      0  -2410.      0  -932.5      1  -815.3    
   ( 22,  1, 87)  ( 22,  1, 87)  ( 22,  1, 87)  ( 22,  1, 87)


 FLOW MODEL IS TRANSIENT
 FLOW MODEL CONTAINS CONSTANT-HEAD CELLS


 MAXIMUM STEPSIZE DURING WHICH ANY PARTICLE CANNOT MOVE MORE THAN ONE CELL
 =  13.21    (WHEN MIN. R.F.=1)  AT K=  17, I=   1, J=  90

 MAXIMUM STEPSIZE WHICH MEETS STABILITY CRITERION OF THE ADVECTION TERM
 (FOR PURE FINITE-DIFFERENCE OPTION, MIXELM=0) 
 =  8.001    (WHEN MIN. R.F.=1)  AT K=  16, I=   1, J=  90


 TOTAL NUMBER OF POINT SOURCES/SINKS PRESENT IN THE FLOW MODEL =    30

 MAXIMUM STEPSIZE WHICH MEETS STABILITY CRITERION OF THE SINK & SOURCE TERM
 =  12.16    (WHEN MIN. R.F.=1)  AT K=  17, I=   1, J=  91

 MAXIMUM STEPSIZE WHICH MEETS STABILITY CRITERION OF THE DISPERSION TERM
 =  4.361    (WHEN MIN. R.F.=1)  AT K=  17, I=   1, J=  90
     1 CALLS TO GCG PACKAGE FOR TRANSPORT TIME STEP 874 IN FLOW TIME STEP   1 STRESS PERIOD   1
     9 TOTAL ITERATIONS
     1 CALLS TO GCG PACKAGE FOR TRANSPORT TIME STEP 874 IN FLOW TIME STEP   1 STRESS PERIOD   1
     8 TOTAL ITERATIONS
 
 SOLVING FOR HEAD 


     2 CALLS TO PCG ROUTINE FOR TIME STEP   1 IN STRESS PERIOD    1
     9 TOTAL ITERATIONS

 MAXIMUM HEAD CHANGE FOR EACH ITERATION (1 INDICATES THE FIRST INNER ITERATION):

    HEAD CHANGE    HEAD CHANGE    HEAD CHANGE    HEAD CHANGE    HEAD CHANGE 
   LAYER,ROW,COL  LAYER,ROW,COL  LAYER,ROW,COL  LAYER,ROW,COL  LAYER,ROW,COL
 ---------------------------------------------------------------------------
  1  0.1352E-01  0 -0.3653E-02  0 -0.2441E-02  0  0.8776E-02  0 -0.8575E-02
   ( 15,  1, 86)  ( 17,  1, 89)  (  8,  1, 12)  (  8,  1, 52)  (  8,  1, 52)
  0  0.1789E-02  0 -0.1108E-02  0 -0.8307E-03  1  0.8608E-03
   ( 11,  1, 70)  ( 11,  1, 70)  ( 11,  1, 60)  ( 11,  1, 70)

 MAXIMUM RESIDUAL FOR EACH ITERATION (1 INDICATES THE FIRST INNER ITERATION):

    RESIDUAL       RESIDUAL       RESIDUAL       RESIDUAL       RESIDUAL    
   LAYER,ROW,COL  LAYER,ROW,COL  LAYER,ROW,COL  LAYER,ROW,COL  LAYER,ROW,COL
 ---------------------------------------------------------------------------
  1  0.1318E+06  0 -0.9243E+05  0 -0.9105E+05  0 -0.3352E+05  0  -5862.    
   ( 21,  1, 89)  ( 19,  1, 89)  ( 19,  1, 89)  ( 19,  1, 89)  ( 17,  1, 87)
  0   2902.      0   2499.      0   825.6      1   694.3    
   ( 22,  1, 87)  ( 22,  1, 87)  ( 22,  1, 87)  ( 22,  1, 87)


 FLOW MODEL IS TRANSIENT
 FLOW MODEL CONTAINS CONSTANT-HEAD CELLS


 MAXIMUM STEPSIZE DURING WHICH ANY PARTICLE CANNOT MOVE MORE THAN ONE CELL
 =  12.87    (WHEN MIN. R.F.=1)  AT K=  17, I=   1, J=  90

 MAXIMUM STEPSIZE WHICH MEETS STABILITY CRITERION OF THE ADVECTION TERM
 (FOR PURE FINITE-DIFFERENCE OPTION, MIXELM=0) 
 =  8.035    (WHEN MIN. R.F.=1)  AT K=  16, I=   1, J=  90


 TOTAL NUMBER OF POINT SOURCES/SINKS PRESENT IN THE FLOW MODEL =    30

 MAXIMUM STEPSIZE WHICH MEETS STABILITY CRITERION OF THE SINK & SOURCE TERM
 =  12.20    (WHEN MIN. R.F.=1)  AT K=  17, I=   1, J=  91

 MAXIMUM STEPSIZE WHICH MEETS STABILITY CRITERION OF THE DISPERSION TERM
 =  4.036    (WHEN MIN. R.F.=1)  AT K=  17, I=   1, J=  90
     1 CALLS TO GCG PACKAGE FOR TRANSPORT TIME STEP 875 IN FLOW TIME STEP   1 STRESS PERIOD   1
     8 TOTAL ITERATIONS
  MAXIMUM CONCENTRATION CHANGES FOR EACH ITERATION:
  MAX. CHANGE LAYER,ROW,COL MAX. CHANGE LAYER,ROW,COL MAX. CHANGE LAYER,ROW,COL MAX. CHANGE LAYER,ROW,COL MAX. CHANGE LAYER,ROW,COL
 ------------------------------------------------------------------------------------------------------------------------------------
   0.5254E-01 ( 20,  1, 87)  0.4174E-02 ( 19,  1, 89)  0.2144E-02 ( 18,  1, 86)  0.4733E-03 ( 20,  1, 89)  0.9570E-04 ( 16,  1, 89)
   0.1979E-04 ( 20,  1, 89)  0.1768E-04 ( 16,  1, 90)  0.7533E-06 ( 17,  1, 90)
     1 CALLS TO GCG PACKAGE FOR TRANSPORT TIME STEP 875 IN FLOW TIME STEP   1 STRESS PERIOD   1
     8 TOTAL ITERATIONS
  MAXIMUM CONCENTRATION CHANGES FOR EACH ITERATION:
  MAX. CHANGE LAYER,ROW,COL MAX. CHANGE LAYER,ROW,COL MAX. CHANGE LAYER,ROW,COL MAX. CHANGE LAYER,ROW,COL MAX. CHANGE LAYER,ROW,COL
 ------------------------------------------------------------------------------------------------------------------------------------
   0.5335E-01 ( 20,  1, 87)  0.4283E-02 ( 19,  1, 89)  0.2053E-02 ( 18,  1, 86)  0.4325E-03 ( 20,  1, 89)  0.9741E-04 ( 16,  1, 89)
   0.1366E-04 ( 23,  1, 87)  0.1552E-04 ( 16,  1, 90)  0.7793E-06 ( 17,  1, 90)
 
 SOLVING FOR HEAD 


     2 CALLS TO PCG ROUTINE FOR TIME STEP   1 IN STRESS PERIOD    1
     8 TOTAL ITERATIONS

 MAXIMUM HEAD CHANGE FOR EACH ITERATION (1 INDICATES THE FIRST INNER ITERATION):

    HEAD CHANGE    HEAD CHANGE    HEAD CHANGE    HEAD CHANGE    HEAD CHANGE 
   LAYER,ROW,COL  LAYER,ROW,COL  LAYER,ROW,COL  LAYER,ROW,COL  LAYER,ROW,COL
 ---------------------------------------------------------------------------
  1 -0.1344E-01  0  0.3670E-02  0  0.2351E-02  0 -0.8030E-02  0 -0.8645E-02
   ( 15,  1, 86)  ( 17,  1, 89)  (  8,  1, 12)  ( 11,  1, 60)  ( 11,  1, 51)
  0  0.1545E-02  0  0.8348E-03  1  0.5937E-03
   ( 11,  1, 50)  ( 11,  1, 65)  ( 11,  1, 59)

 MAXIMUM RESIDUAL FOR EACH ITERATION (1 INDICATES THE FIRST INNER ITERATION):

    RESIDUAL       RESIDUAL       RESIDUAL       RESIDUAL       RESIDUAL    
   LAYER,ROW,COL  LAYER,ROW,COL  LAYER,ROW,COL  LAYER,ROW,COL  LAYER,ROW,COL
 ---------------------------------------------------------------------------
  1 -0.1327E+06  0  0.9342E+05  0  0.9190E+05  0  0.2108E+05  0   4879.    
   ( 21,  1, 89)  ( 19,  1, 89)  ( 19,  1, 89)  ( 19,  1, 89)  ( 17,  1, 87)
  0  -2837.      0  -2467.      1  -2071.    
   ( 22,  1, 87)  ( 22,  1, 87)  ( 22,  1, 87)


 FLOW MODEL IS TRANSIENT
 FLOW MODEL CONTAINS CONSTANT-HEAD CELLS


 MAXIMUM STEPSIZE DURING WHICH ANY PARTICLE CANNOT MOVE MORE THAN ONE CELL
 =  13.22    (WHEN MIN. R.F.=1)  AT K=  17, I=   1, J=  90

 MAXIMUM STEPSIZE WHICH MEETS STABILITY CRITERION OF THE ADVECTION TERM
 (FOR PURE FINITE-DIFFERENCE OPTION, MIXELM=0) 
 =  8.006    (WHEN MIN. R.F.=1)  AT K=  16, I=   1, J=  90


 TOTAL NUMBER OF POINT SOURCES/SINKS PRESENT IN THE FLOW MODEL =    30

 MAXIMUM STEPSIZE WHICH MEETS STABILITY CRITERION OF THE SINK & SOURCE TERM
 =  12.17    (WHEN MIN. R.F.=1)  AT K=  17, I=   1, J=  91

 MAXIMUM STEPSIZE WHICH MEETS STABILITY CRITERION OF THE DISPERSION TERM
 =  4.360    (WHEN MIN. R.F.=1)  AT K=  17, I=   1, J=  90
     1 CALLS TO GCG PACKAGE FOR TRANSPORT TIME STEP 876 IN FLOW TIME STEP   1 STRESS PERIOD   1
     8 TOTAL ITERATIONS
     1 CALLS TO GCG PACKAGE FOR TRANSPORT TIME STEP 876 IN FLOW TIME STEP   1 STRESS PERIOD   1
     8 TOTAL ITERATIONS
 
 SOLVING FOR HEAD 


     2 CALLS TO PCG ROUTINE FOR TIME STEP   1 IN STRESS PERIOD    1
     9 TOTAL ITERATIONS

 MAXIMUM HEAD CHANGE FOR EACH ITERATION (1 INDICATES THE FIRST INNER ITERATION):

    HEAD CHANGE    HEAD CHANGE    HEAD CHANGE    HEAD CHANGE    HEAD CHANGE 
   LAYER,ROW,COL  LAYER,ROW,COL  LAYER,ROW,COL  LAYER,ROW,COL  LAYER,ROW,COL
 ---------------------------------------------------------------------------
  1  0.1383E-01  0  0.6393E-02  0 -0.3764E-02  0 -0.9386E-02  0  0.7236E-02
   ( 15,  1, 86)  (  7,  1, 45)  (  7,  1, 12)  (  8,  1, 47)  (  8,  1, 49)
  0 -0.4798E-02  0 -0.1597E-02  0 -0.8637E-03  1  0.7671E-03
   ( 11,  1, 65)  ( 11,  1, 58)  ( 11,  1, 70)  ( 11,  1, 70)

 MAXIMUM RESIDUAL FOR EACH ITERATION (1 INDICATES THE FIRST INNER ITERATION):

    RESIDUAL       RESIDUAL       RESIDUAL       RESIDUAL       RESIDUAL    
   LAYER,ROW,COL  LAYER,ROW,COL  LAYER,ROW,COL  LAYER,ROW,COL  LAYER,ROW,COL
 ---------------------------------------------------------------------------
  1  0.1334E+06  0 -0.9459E+05  0 -0.9377E+05  0 -0.7186E+05  0  -6051.    
   ( 21,  1, 89)  ( 19,  1, 89)  ( 19,  1, 89)  ( 19,  1, 89)  ( 17,  1, 87)
  0   2756.      0   2611.      0   1636.      1   1448.    
   ( 17,  1, 88)  ( 22,  1, 87)  ( 22,  1, 87)  ( 22,  1, 87)


 FLOW MODEL IS TRANSIENT
 FLOW MODEL CONTAINS CONSTANT-HEAD CELLS


 MAXIMUM STEPSIZE DURING WHICH ANY PARTICLE CANNOT MOVE MORE THAN ONE CELL
 =  12.90    (WHEN MIN. R.F.=1)  AT K=  17, I=   1, J=  90

 MAXIMUM STEPSIZE WHICH MEETS STABILITY CRITERION OF THE ADVECTION TERM
 (FOR PURE FINITE-DIFFERENCE OPTION, MIXELM=0) 
 =  8.055    (WHEN MIN. R.F.=1)  AT K=  16, I=   1, J=  90


 TOTAL NUMBER OF POINT SOURCES/SINKS PRESENT IN THE FLOW MODEL =    30

 MAXIMUM STEPSIZE WHICH MEETS STABILITY CRITERION OF THE SINK & SOURCE TERM
 =  12.27    (WHEN MIN. R.F.=1)  AT K=  17, I=   1, J=  91

 MAXIMUM STEPSIZE WHICH MEETS STABILITY CRITERION OF THE DISPERSION TERM
 =  4.047    (WHEN MIN. R.F.=1)  AT K=  17, I=   1, J=  90
     1 CALLS TO GCG PACKAGE FOR TRANSPORT TIME STEP 877 IN FLOW TIME STEP   1 STRESS PERIOD   1
     8 TOTAL ITERATIONS
     1 CALLS TO GCG PACKAGE FOR TRANSPORT TIME STEP 877 IN FLOW TIME STEP   1 STRESS PERIOD   1
     8 TOTAL ITERATIONS
 
 SOLVING FOR HEAD 


     2 CALLS TO PCG ROUTINE FOR TIME STEP   1 IN STRESS PERIOD    1
     9 TOTAL ITERATIONS

 MAXIMUM HEAD CHANGE FOR EACH ITERATION (1 INDICATES THE FIRST INNER ITERATION):

    HEAD CHANGE    HEAD CHANGE    HEAD CHANGE    HEAD CHANGE    HEAD CHANGE 
   LAYER,ROW,COL  LAYER,ROW,COL  LAYER,ROW,COL  LAYER,ROW,COL  LAYER,ROW,COL
 ---------------------------------------------------------------------------
  1 -0.1373E-01  0  0.4122E-02  0  0.3935E-02  0  0.1191E-01  0 -0.1260E-01
   ( 15,  1, 86)  ( 17,  1, 89)  (  8,  1, 12)  ( 11,  1, 54)  ( 11,  1, 54)
  0  0.1478E-02  0  0.1058E-02  0  0.7280E-03  1 -0.2731E-03
   ( 11,  1, 57)  ( 11,  1, 64)  ( 11,  1, 49)  ( 11,  1, 40)

 MAXIMUM RESIDUAL FOR EACH ITERATION (1 INDICATES THE FIRST INNER ITERATION):

    RESIDUAL       RESIDUAL       RESIDUAL       RESIDUAL       RESIDUAL    
   LAYER,ROW,COL  LAYER,ROW,COL  LAYER,ROW,COL  LAYER,ROW,COL  LAYER,ROW,COL
 ---------------------------------------------------------------------------
  1 -0.1351E+06  0  0.9609E+05  0  0.9530E+05  0  0.2536E+05  0   5113.    
   ( 21,  1, 89)  ( 19,  1, 89)  ( 19,  1, 89)  ( 19,  1, 89)  ( 17,  1, 87)
  0  -2879.      0  -2321.      0  -771.7      1  -682.9    
   ( 22,  1, 87)  ( 22,  1, 87)  ( 22,  1, 87)  ( 22,  1, 87)


 FLOW MODEL IS TRANSIENT
 FLOW MODEL CONTAINS CONSTANT-HEAD CELLS


 MAXIMUM STEPSIZE DURING WHICH ANY PARTICLE CANNOT MOVE MORE THAN ONE CELL
 =  13.22    (WHEN MIN. R.F.=1)  AT K=  17, I=   1, J=  90

 MAXIMUM STEPSIZE WHICH MEETS STABILITY CRITERION OF THE ADVECTION TERM
 (FOR PURE FINITE-DIFFERENCE OPTION, MIXELM=0) 
 =  8.001    (WHEN MIN. R.F.=1)  AT K=  16, I=   1, J=  90


 TOTAL NUMBER OF POINT SOURCES/SINKS PRESENT IN THE FLOW MODEL =    30

 MAXIMUM STEPSIZE WHICH MEETS STABILITY CRITERION OF THE SINK & SOURCE TERM
 =  12.18    (WHEN MIN. R.F.=1)  AT K=  17, I=   1, J=  91

 MAXIMUM STEPSIZE WHICH MEETS STABILITY CRITERION OF THE DISPERSION TERM
 =  4.368    (WHEN MIN. R.F.=1)  AT K=  17, I=   1, J=  90
     1 CALLS TO GCG PACKAGE FOR TRANSPORT TIME STEP 878 IN FLOW TIME STEP   1 STRESS PERIOD   1
     9 TOTAL ITERATIONS
     1 CALLS TO GCG PACKAGE FOR TRANSPORT TIME STEP 878 IN FLOW TIME STEP   1 STRESS PERIOD   1
     8 TOTAL ITERATIONS
 
 SOLVING FOR HEAD 


     2 CALLS TO PCG ROUTINE FOR TIME STEP   1 IN STRESS PERIOD    1
     9 TOTAL ITERATIONS

 MAXIMUM HEAD CHANGE FOR EACH ITERATION (1 INDICATES THE FIRST INNER ITERATION):

    HEAD CHANGE    HEAD CHANGE    HEAD CHANGE    HEAD CHANGE    HEAD CHANGE 
   LAYER,ROW,COL  LAYER,ROW,COL  LAYER,ROW,COL  LAYER,ROW,COL  LAYER,ROW,COL
 ---------------------------------------------------------------------------
  1  0.1334E-01  0 -0.3819E-02  0 -0.2435E-02  0 -0.8421E-02  0  0.8878E-02
   ( 15,  1, 86)  ( 17,  1, 89)  (  7,  1, 12)  (  8,  1, 51)  ( 10,  1, 51)
  0  0.1100E-02  0 -0.1413E-02  0 -0.7702E-03  1  0.9717E-03
   ( 11,  1, 35)  ( 11,  1, 59)  ( 11,  1, 70)  ( 11,  1, 70)

 MAXIMUM RESIDUAL FOR EACH ITERATION (1 INDICATES THE FIRST INNER ITERATION):

    RESIDUAL       RESIDUAL       RESIDUAL       RESIDUAL       RESIDUAL    
   LAYER,ROW,COL  LAYER,ROW,COL  LAYER,ROW,COL  LAYER,ROW,COL  LAYER,ROW,COL
 ---------------------------------------------------------------------------
  1  0.1353E+06  0 -0.9609E+05  0 -0.9350E+05  0 -0.3736E+05  0  -6075.    
   ( 21,  1, 89)  ( 19,  1, 89)  ( 19,  1, 89)  ( 19,  1, 89)  ( 17,  1, 87)
  0   2825.      0   2298.      0   820.9      1   682.6    
   ( 22,  1, 87)  ( 22,  1, 87)  ( 22,  1, 87)  ( 22,  1, 87)


 FLOW MODEL IS TRANSIENT
 FLOW MODEL CONTAINS CONSTANT-HEAD CELLS


 MAXIMUM STEPSIZE DURING WHICH ANY PARTICLE CANNOT MOVE MORE THAN ONE CELL
 =  12.85    (WHEN MIN. R.F.=1)  AT K=  17, I=   1, J=  90

 MAXIMUM STEPSIZE WHICH MEETS STABILITY CRITERION OF THE ADVECTION TERM
 (FOR PURE FINITE-DIFFERENCE OPTION, MIXELM=0) 
 =  8.032    (WHEN MIN. R.F.=1)  AT K=  16, I=   1, J=  90


 TOTAL NUMBER OF POINT SOURCES/SINKS PRESENT IN THE FLOW MODEL =    30

 MAXIMUM STEPSIZE WHICH MEETS STABILITY CRITERION OF THE SINK & SOURCE TERM
 =  12.20    (WHEN MIN. R.F.=1)  AT K=  17, I=   1, J=  91

 MAXIMUM STEPSIZE WHICH MEETS STABILITY CRITERION OF THE DISPERSION TERM
 =  4.023    (WHEN MIN. R.F.=1)  AT K=  17, I=   1, J=  90
     1 CALLS TO GCG PACKAGE FOR TRANSPORT TIME STEP 879 IN FLOW TIME STEP   1 STRESS PERIOD   1
     8 TOTAL ITERATIONS
     1 CALLS TO GCG PACKAGE FOR TRANSPORT TIME STEP 879 IN FLOW TIME STEP   1 STRESS PERIOD   1
     8 TOTAL ITERATIONS
 
 SOLVING FOR HEAD 


     2 CALLS TO PCG ROUTINE FOR TIME STEP   1 IN STRESS PERIOD    1
     9 TOTAL ITERATIONS

 MAXIMUM HEAD CHANGE FOR EACH ITERATION (1 INDICATES THE FIRST INNER ITERATION):

    HEAD CHANGE    HEAD CHANGE    HEAD CHANGE    HEAD CHANGE    HEAD CHANGE 
   LAYER,ROW,COL  LAYER,ROW,COL  LAYER,ROW,COL  LAYER,ROW,COL  LAYER,ROW,COL
 ---------------------------------------------------------------------------
  1 -0.1348E-01  0  0.3710E-02  0  0.3281E-02  0  0.1201E-01  0 -0.1273E-01
   ( 15,  1, 86)  ( 17,  1, 89)  (  8,  1, 12)  ( 11,  1, 56)  ( 11,  1, 56)
  0  0.1719E-02  0  0.1005E-02  0  0.8403E-03  1 -0.4189E-03
   ( 11,  1, 57)  ( 11,  1, 64)  ( 11,  1, 49)  ( 11,  1, 53)

 MAXIMUM RESIDUAL FOR EACH ITERATION (1 INDICATES THE FIRST INNER ITERATION):

    RESIDUAL       RESIDUAL       RESIDUAL       RESIDUAL       RESIDUAL    
   LAYER,ROW,COL  LAYER,ROW,COL  LAYER,ROW,COL  LAYER,ROW,COL  LAYER,ROW,COL
 ---------------------------------------------------------------------------
  1 -0.1317E+06  0  0.9178E+05  0  0.9090E+05  0  0.2623E+05  0   5358.    
   ( 21,  1, 89)  ( 19,  1, 89)  ( 19,  1, 89)  ( 19,  1, 89)  ( 17,  1, 87)
  0  -2849.      0  -2381.      0  -785.0      1  -680.2    
   ( 22,  1, 87)  ( 22,  1, 87)  ( 22,  1, 87)  ( 22,  1, 87)


 FLOW MODEL IS TRANSIENT
 FLOW MODEL CONTAINS CONSTANT-HEAD CELLS


 MAXIMUM STEPSIZE DURING WHICH ANY PARTICLE CANNOT MOVE MORE THAN ONE CELL
 =  13.22    (WHEN MIN. R.F.=1)  AT K=  17, I=   1, J=  90

 MAXIMUM STEPSIZE WHICH MEETS STABILITY CRITERION OF THE ADVECTION TERM
 (FOR PURE FINITE-DIFFERENCE OPTION, MIXELM=0) 
 =  8.003    (WHEN MIN. R.F.=1)  AT K=  16, I=   1, J=  90


 TOTAL NUMBER OF POINT SOURCES/SINKS PRESENT IN THE FLOW MODEL =    30

 MAXIMUM STEPSIZE WHICH MEETS STABILITY CRITERION OF THE SINK & SOURCE TERM
 =  12.17    (WHEN MIN. R.F.=1)  AT K=  17, I=   1, J=  91

 MAXIMUM STEPSIZE WHICH MEETS STABILITY CRITERION OF THE DISPERSION TERM
 =  4.364    (WHEN MIN. R.F.=1)  AT K=  17, I=   1, J=  90
     1 CALLS TO GCG PACKAGE FOR TRANSPORT TIME STEP 880 IN FLOW TIME STEP   1 STRESS PERIOD   1
     9 TOTAL ITERATIONS
  MAXIMUM CONCENTRATION CHANGES FOR EACH ITERATION:
  MAX. CHANGE LAYER,ROW,COL MAX. CHANGE LAYER,ROW,COL MAX. CHANGE LAYER,ROW,COL MAX. CHANGE LAYER,ROW,COL MAX. CHANGE LAYER,ROW,COL
 ------------------------------------------------------------------------------------------------------------------------------------
   0.4936E-01 ( 20,  1, 87)  0.3322E-02 ( 19,  1, 87)  0.2263E-02 ( 18,  1, 87)  0.2193E-03 ( 16,  1, 88)  0.1416E-03 ( 16,  1, 89)
   0.3070E-04 ( 16,  1, 90)  0.2977E-05 ( 21,  1, 78)  0.7363E-05 ( 21,  1, 78)  0.8125E-06 ( 16,  1, 89)
     1 CALLS TO GCG PACKAGE FOR TRANSPORT TIME STEP 880 IN FLOW TIME STEP   1 STRESS PERIOD   1
     8 TOTAL ITERATIONS
  MAXIMUM CONCENTRATION CHANGES FOR EACH ITERATION:
  MAX. CHANGE LAYER,ROW,COL MAX. CHANGE LAYER,ROW,COL MAX. CHANGE LAYER,ROW,COL MAX. CHANGE LAYER,ROW,COL MAX. CHANGE LAYER,ROW,COL
 ------------------------------------------------------------------------------------------------------------------------------------
   0.4973E-01 ( 20,  1, 87)  0.3255E-02 ( 19,  1, 87)  0.2230E-02 ( 18,  1, 87)  0.2109E-03 ( 16,  1, 88)  0.1297E-03 ( 16,  1, 89)
   0.3112E-04 ( 16,  1, 90)  0.4401E-05 ( 17,  1, 90)  0.5096E-06 ( 16,  1, 89)



 >>>>>>>>>>>>>>>>>>>>>>>>>>>>>>>>>>>>>>>>>>>>>>>>>>>>>>>FOR COMPONENT NO. 01<<<<<<<<<<<<<<<<<<<<<<<<<<<<<<<<<<<<<<<<<<<<<<<<<<<<<<<


                                            -------------------------------------------
                                                      TRANSPORT STEP NO.  880
                                            -------------------------------------------

 TOTAL ELAPSED TIME SINCE BEGINNING OF SIMULATION =   44000.00    D   
 .....................................................................

                     CUMMULATIVE MASS BUDGETS AT END OF TRANSPORT STEP  880, TIME STEP    1, STRESS PERIOD    1
                     ------------------------------------------------------------------------------------------

                                                             IN                           OUT
                                                      ----------------             ----------------
                               CONSTANT CONCENTRATION:    0.000000                    0.000000    
                                        CONSTANT HEAD:   0.1740807E+10              -0.1740594E+10
                                                WELLS:    0.000000                    0.000000    
                                             RECHARGE:    0.000000                    0.000000    
                               1ST/0TH ORDER REACTION:    0.000000                    0.000000    
                                MASS STORAGE (SOLUTE):   0.2433385E+09              -0.2435526E+09
                            ---------------------------------------------------------------------------
                                              [TOTAL]:   0.1984148E+10 KG           -0.1984148E+10 KG  

                                                          NET (IN - OUT):   -412.5948    
                                                   DISCREPANCY (PERCENT):  -0.2079456E-04



 >>>>>>>>>>>>>>>>>>>>>>>>>>>>>>>>>>>>>>>>>>>>>>>>>>>>>>>FOR COMPONENT NO. 02<<<<<<<<<<<<<<<<<<<<<<<<<<<<<<<<<<<<<<<<<<<<<<<<<<<<<<<


                                            -------------------------------------------
                                                      TRANSPORT STEP NO.  880
                                            -------------------------------------------

 TOTAL ELAPSED TIME SINCE BEGINNING OF SIMULATION =   44000.00    D   
 .....................................................................

                     CUMMULATIVE MASS BUDGETS AT END OF TRANSPORT STEP  880, TIME STEP    1, STRESS PERIOD    1
                     ------------------------------------------------------------------------------------------

                                                             IN                           OUT
                                                      ----------------             ----------------
                               CONSTANT CONCENTRATION:    0.000000                    0.000000    
                                        CONSTANT HEAD:    0.000000                  -0.3815672E+12
                                                WELLS:    0.000000                    0.000000    
                                             RECHARGE:    0.000000                    0.000000    
                               1ST/0TH ORDER REACTION:   0.7282000E+12                0.000000    
                                MASS STORAGE (SOLUTE):   0.1485140E+12              -0.4951469E+12
                            ---------------------------------------------------------------------------
                                              [TOTAL]:   0.8767159E+12 KG           -0.8767160E+12 KG  

                                                          NET (IN - OUT):   -122775.1    
                                                   DISCREPANCY (PERCENT):  -0.1400397E-04
 
 SOLVING FOR HEAD 


     2 CALLS TO PCG ROUTINE FOR TIME STEP   1 IN STRESS PERIOD    1
     9 TOTAL ITERATIONS

 MAXIMUM HEAD CHANGE FOR EACH ITERATION (1 INDICATES THE FIRST INNER ITERATION):

    HEAD CHANGE    HEAD CHANGE    HEAD CHANGE    HEAD CHANGE    HEAD CHANGE 
   LAYER,ROW,COL  LAYER,ROW,COL  LAYER,ROW,COL  LAYER,ROW,COL  LAYER,ROW,COL
 ---------------------------------------------------------------------------
  1  0.1344E-01  0 -0.3687E-02  0 -0.2548E-02  0 -0.8124E-02  0  0.8728E-02
   ( 15,  1, 86)  ( 17,  1, 89)  (  7,  1, 12)  (  9,  1, 54)  (  8,  1, 53)
  0  0.1408E-02  0 -0.1239E-02  0 -0.8848E-03  1  0.7979E-03
   ( 11,  1, 35)  ( 11,  1, 59)  ( 11,  1, 70)  ( 11,  1, 70)

 MAXIMUM RESIDUAL FOR EACH ITERATION (1 INDICATES THE FIRST INNER ITERATION):

    RESIDUAL       RESIDUAL       RESIDUAL       RESIDUAL       RESIDUAL    
   LAYER,ROW,COL  LAYER,ROW,COL  LAYER,ROW,COL  LAYER,ROW,COL  LAYER,ROW,COL
 ---------------------------------------------------------------------------
  1  0.1314E+06  0 -0.9196E+05  0 -0.8867E+05  0 -0.3511E+05  0  -5983.    
   ( 21,  1, 89)  ( 19,  1, 89)  ( 19,  1, 89)  ( 19,  1, 89)  ( 17,  1, 87)
  0   2889.      0   2555.      0   909.0      1   780.8    
   ( 22,  1, 87)  ( 22,  1, 87)  ( 22,  1, 87)  ( 22,  1, 87)


 FLOW MODEL IS TRANSIENT
 FLOW MODEL CONTAINS CONSTANT-HEAD CELLS


 MAXIMUM STEPSIZE DURING WHICH ANY PARTICLE CANNOT MOVE MORE THAN ONE CELL
 =  12.86    (WHEN MIN. R.F.=1)  AT K=  17, I=   1, J=  90

 MAXIMUM STEPSIZE WHICH MEETS STABILITY CRITERION OF THE ADVECTION TERM
 (FOR PURE FINITE-DIFFERENCE OPTION, MIXELM=0) 
 =  8.035    (WHEN MIN. R.F.=1)  AT K=  16, I=   1, J=  90


 TOTAL NUMBER OF POINT SOURCES/SINKS PRESENT IN THE FLOW MODEL =    30

 MAXIMUM STEPSIZE WHICH MEETS STABILITY CRITERION OF THE SINK & SOURCE TERM
 =  12.21    (WHEN MIN. R.F.=1)  AT K=  17, I=   1, J=  91

 MAXIMUM STEPSIZE WHICH MEETS STABILITY CRITERION OF THE DISPERSION TERM
 =  4.034    (WHEN MIN. R.F.=1)  AT K=  17, I=   1, J=  90
     1 CALLS TO GCG PACKAGE FOR TRANSPORT TIME STEP 881 IN FLOW TIME STEP   1 STRESS PERIOD   1
     8 TOTAL ITERATIONS
     1 CALLS TO GCG PACKAGE FOR TRANSPORT TIME STEP 881 IN FLOW TIME STEP   1 STRESS PERIOD   1
     8 TOTAL ITERATIONS
 
 SOLVING FOR HEAD 


     2 CALLS TO PCG ROUTINE FOR TIME STEP   1 IN STRESS PERIOD    1
     8 TOTAL ITERATIONS

 MAXIMUM HEAD CHANGE FOR EACH ITERATION (1 INDICATES THE FIRST INNER ITERATION):

    HEAD CHANGE    HEAD CHANGE    HEAD CHANGE    HEAD CHANGE    HEAD CHANGE 
   LAYER,ROW,COL  LAYER,ROW,COL  LAYER,ROW,COL  LAYER,ROW,COL  LAYER,ROW,COL
 ---------------------------------------------------------------------------
  1 -0.1349E-01  0  0.3670E-02  0  0.2467E-02  0 -0.1066E-01  0  0.1100E-01
   ( 15,  1, 86)  ( 17,  1, 89)  (  8,  1, 12)  ( 11,  1, 49)  ( 11,  1, 49)
  0 -0.1803E-02  0  0.8647E-03  1  0.4694E-03
   ( 11,  1, 52)  ( 11,  1, 54)  ( 11,  1, 49)

 MAXIMUM RESIDUAL FOR EACH ITERATION (1 INDICATES THE FIRST INNER ITERATION):

    RESIDUAL       RESIDUAL       RESIDUAL       RESIDUAL       RESIDUAL    
   LAYER,ROW,COL  LAYER,ROW,COL  LAYER,ROW,COL  LAYER,ROW,COL  LAYER,ROW,COL
 ---------------------------------------------------------------------------
  1 -0.1330E+06  0  0.9367E+05  0  0.9234E+05  0  0.2359E+05  0   5078.    
   ( 21,  1, 89)  ( 19,  1, 89)  ( 19,  1, 89)  ( 19,  1, 89)  ( 17,  1, 87)
  0  -2822.      0  -2454.      1  -2064.    
   ( 22,  1, 87)  ( 22,  1, 87)  ( 22,  1, 87)


 FLOW MODEL IS TRANSIENT
 FLOW MODEL CONTAINS CONSTANT-HEAD CELLS


 MAXIMUM STEPSIZE DURING WHICH ANY PARTICLE CANNOT MOVE MORE THAN ONE CELL
 =  13.21    (WHEN MIN. R.F.=1)  AT K=  17, I=   1, J=  90

 MAXIMUM STEPSIZE WHICH MEETS STABILITY CRITERION OF THE ADVECTION TERM
 (FOR PURE FINITE-DIFFERENCE OPTION, MIXELM=0) 
 =  8.004    (WHEN MIN. R.F.=1)  AT K=  16, I=   1, J=  90


 TOTAL NUMBER OF POINT SOURCES/SINKS PRESENT IN THE FLOW MODEL =    30

 MAXIMUM STEPSIZE WHICH MEETS STABILITY CRITERION OF THE SINK & SOURCE TERM
 =  12.17    (WHEN MIN. R.F.=1)  AT K=  17, I=   1, J=  91

 MAXIMUM STEPSIZE WHICH MEETS STABILITY CRITERION OF THE DISPERSION TERM
 =  4.358    (WHEN MIN. R.F.=1)  AT K=  17, I=   1, J=  90
     1 CALLS TO GCG PACKAGE FOR TRANSPORT TIME STEP 882 IN FLOW TIME STEP   1 STRESS PERIOD   1
     8 TOTAL ITERATIONS
     1 CALLS TO GCG PACKAGE FOR TRANSPORT TIME STEP 882 IN FLOW TIME STEP   1 STRESS PERIOD   1
     8 TOTAL ITERATIONS
 
 SOLVING FOR HEAD 


     2 CALLS TO PCG ROUTINE FOR TIME STEP   1 IN STRESS PERIOD    1
     9 TOTAL ITERATIONS

 MAXIMUM HEAD CHANGE FOR EACH ITERATION (1 INDICATES THE FIRST INNER ITERATION):

    HEAD CHANGE    HEAD CHANGE    HEAD CHANGE    HEAD CHANGE    HEAD CHANGE 
   LAYER,ROW,COL  LAYER,ROW,COL  LAYER,ROW,COL  LAYER,ROW,COL  LAYER,ROW,COL
 ---------------------------------------------------------------------------
  1  0.1386E-01  0 -0.4535E-02  0 -0.4088E-02  0  0.9914E-02  0 -0.7884E-02
   ( 15,  1, 86)  ( 11,  1, 63)  (  8,  1, 12)  (  9,  1, 50)  (  6,  1, 48)
  0 -0.3727E-02  0 -0.1594E-02  0 -0.8999E-03  1  0.6686E-03
   ( 11,  1, 54)  ( 11,  1, 70)  ( 11,  1, 58)  ( 11,  1, 58)

 MAXIMUM RESIDUAL FOR EACH ITERATION (1 INDICATES THE FIRST INNER ITERATION):

    RESIDUAL       RESIDUAL       RESIDUAL       RESIDUAL       RESIDUAL    
   LAYER,ROW,COL  LAYER,ROW,COL  LAYER,ROW,COL  LAYER,ROW,COL  LAYER,ROW,COL
 ---------------------------------------------------------------------------
  1  0.1333E+06  0 -0.9429E+05  0 -0.9353E+05  0 -0.6877E+05  0  -6017.    
   ( 21,  1, 89)  ( 19,  1, 89)  ( 19,  1, 89)  ( 19,  1, 89)  ( 17,  1, 87)
  0   2806.      0   2628.      0   1653.      1   1460.    
   ( 17,  1, 88)  ( 22,  1, 87)  ( 22,  1, 87)  ( 22,  1, 87)


 FLOW MODEL IS TRANSIENT
 FLOW MODEL CONTAINS CONSTANT-HEAD CELLS


 MAXIMUM STEPSIZE DURING WHICH ANY PARTICLE CANNOT MOVE MORE THAN ONE CELL
 =  12.90    (WHEN MIN. R.F.=1)  AT K=  17, I=   1, J=  90

 MAXIMUM STEPSIZE WHICH MEETS STABILITY CRITERION OF THE ADVECTION TERM
 (FOR PURE FINITE-DIFFERENCE OPTION, MIXELM=0) 
 =  8.056    (WHEN MIN. R.F.=1)  AT K=  16, I=   1, J=  90


 TOTAL NUMBER OF POINT SOURCES/SINKS PRESENT IN THE FLOW MODEL =    30

 MAXIMUM STEPSIZE WHICH MEETS STABILITY CRITERION OF THE SINK & SOURCE TERM
 =  12.27    (WHEN MIN. R.F.=1)  AT K=  17, I=   1, J=  91

 MAXIMUM STEPSIZE WHICH MEETS STABILITY CRITERION OF THE DISPERSION TERM
 =  4.048    (WHEN MIN. R.F.=1)  AT K=  17, I=   1, J=  90
     1 CALLS TO GCG PACKAGE FOR TRANSPORT TIME STEP 883 IN FLOW TIME STEP   1 STRESS PERIOD   1
     8 TOTAL ITERATIONS
     1 CALLS TO GCG PACKAGE FOR TRANSPORT TIME STEP 883 IN FLOW TIME STEP   1 STRESS PERIOD   1
     8 TOTAL ITERATIONS
 
 SOLVING FOR HEAD 


     2 CALLS TO PCG ROUTINE FOR TIME STEP   1 IN STRESS PERIOD    1
     8 TOTAL ITERATIONS

 MAXIMUM HEAD CHANGE FOR EACH ITERATION (1 INDICATES THE FIRST INNER ITERATION):

    HEAD CHANGE    HEAD CHANGE    HEAD CHANGE    HEAD CHANGE    HEAD CHANGE 
   LAYER,ROW,COL  LAYER,ROW,COL  LAYER,ROW,COL  LAYER,ROW,COL  LAYER,ROW,COL
 ---------------------------------------------------------------------------
  1 -0.1374E-01  0  0.4111E-02  0  0.4436E-02  0 -0.1046E-01  0  0.9766E-02
   ( 15,  1, 86)  ( 17,  1, 89)  (  8,  1, 12)  ( 11,  1, 57)  ( 11,  1, 56)
  0  0.2185E-02  0  0.7300E-03  1  0.5475E-03
   ( 11,  1, 69)  ( 11,  1, 40)  ( 11,  1, 58)

 MAXIMUM RESIDUAL FOR EACH ITERATION (1 INDICATES THE FIRST INNER ITERATION):

    RESIDUAL       RESIDUAL       RESIDUAL       RESIDUAL       RESIDUAL    
   LAYER,ROW,COL  LAYER,ROW,COL  LAYER,ROW,COL  LAYER,ROW,COL  LAYER,ROW,COL
 ---------------------------------------------------------------------------
  1 -0.1353E+06  0  0.9635E+05  0  0.9566E+05  0  0.2740E+05  0   5263.    
   ( 21,  1, 89)  ( 19,  1, 89)  ( 19,  1, 89)  ( 19,  1, 89)  ( 17,  1, 87)
  0  -2855.      0  -2580.      1  -2056.    
   ( 22,  1, 87)  ( 22,  1, 87)  ( 22,  1, 87)


 FLOW MODEL IS TRANSIENT
 FLOW MODEL CONTAINS CONSTANT-HEAD CELLS


 MAXIMUM STEPSIZE DURING WHICH ANY PARTICLE CANNOT MOVE MORE THAN ONE CELL
 =  13.23    (WHEN MIN. R.F.=1)  AT K=  17, I=   1, J=  90

 MAXIMUM STEPSIZE WHICH MEETS STABILITY CRITERION OF THE ADVECTION TERM
 (FOR PURE FINITE-DIFFERENCE OPTION, MIXELM=0) 
 =  8.006    (WHEN MIN. R.F.=1)  AT K=  16, I=   1, J=  90


 TOTAL NUMBER OF POINT SOURCES/SINKS PRESENT IN THE FLOW MODEL =    30

 MAXIMUM STEPSIZE WHICH MEETS STABILITY CRITERION OF THE SINK & SOURCE TERM
 =  12.18    (WHEN MIN. R.F.=1)  AT K=  17, I=   1, J=  91

 MAXIMUM STEPSIZE WHICH MEETS STABILITY CRITERION OF THE DISPERSION TERM
 =  4.373    (WHEN MIN. R.F.=1)  AT K=  17, I=   1, J=  90
     1 CALLS TO GCG PACKAGE FOR TRANSPORT TIME STEP 884 IN FLOW TIME STEP   1 STRESS PERIOD   1
    10 TOTAL ITERATIONS
     1 CALLS TO GCG PACKAGE FOR TRANSPORT TIME STEP 884 IN FLOW TIME STEP   1 STRESS PERIOD   1
     8 TOTAL ITERATIONS
 
 SOLVING FOR HEAD 


     2 CALLS TO PCG ROUTINE FOR TIME STEP   1 IN STRESS PERIOD    1
     9 TOTAL ITERATIONS

 MAXIMUM HEAD CHANGE FOR EACH ITERATION (1 INDICATES THE FIRST INNER ITERATION):

    HEAD CHANGE    HEAD CHANGE    HEAD CHANGE    HEAD CHANGE    HEAD CHANGE 
   LAYER,ROW,COL  LAYER,ROW,COL  LAYER,ROW,COL  LAYER,ROW,COL  LAYER,ROW,COL
 ---------------------------------------------------------------------------
  1  0.1368E-01  0  0.7983E-02  0 -0.3413E-02  0 -0.9378E-02  0  0.6400E-02
   ( 15,  1, 86)  (  7,  1, 45)  (  7,  1, 12)  (  7,  1, 46)  (  8,  1, 48)
  0 -0.3685E-02  0 -0.1622E-02  0 -0.8100E-03  1 -0.6827E-03
   ( 11,  1, 66)  ( 11,  1, 57)  ( 11,  1, 70)  ( 11,  1, 53)

 MAXIMUM RESIDUAL FOR EACH ITERATION (1 INDICATES THE FIRST INNER ITERATION):

    RESIDUAL       RESIDUAL       RESIDUAL       RESIDUAL       RESIDUAL    
   LAYER,ROW,COL  LAYER,ROW,COL  LAYER,ROW,COL  LAYER,ROW,COL  LAYER,ROW,COL
 ---------------------------------------------------------------------------
  1  0.1370E+06  0 -0.9789E+05  0 -0.9689E+05  0 -0.7948E+05  0  -6194.    
   ( 21,  1, 89)  ( 19,  1, 89)  ( 19,  1, 89)  ( 19,  1, 89)  ( 17,  1, 87)
  0   3020.      0   2558.      0   1356.      1   1194.    
   ( 17,  1, 88)  ( 22,  1, 87)  ( 22,  1, 87)  ( 22,  1, 87)


 FLOW MODEL IS TRANSIENT
 FLOW MODEL CONTAINS CONSTANT-HEAD CELLS


 MAXIMUM STEPSIZE DURING WHICH ANY PARTICLE CANNOT MOVE MORE THAN ONE CELL
 =  12.88    (WHEN MIN. R.F.=1)  AT K=  17, I=   1, J=  90

 MAXIMUM STEPSIZE WHICH MEETS STABILITY CRITERION OF THE ADVECTION TERM
 (FOR PURE FINITE-DIFFERENCE OPTION, MIXELM=0) 
 =  8.050    (WHEN MIN. R.F.=1)  AT K=  16, I=   1, J=  90


 TOTAL NUMBER OF POINT SOURCES/SINKS PRESENT IN THE FLOW MODEL =    30

 MAXIMUM STEPSIZE WHICH MEETS STABILITY CRITERION OF THE SINK & SOURCE TERM
 =  12.25    (WHEN MIN. R.F.=1)  AT K=  17, I=   1, J=  91

 MAXIMUM STEPSIZE WHICH MEETS STABILITY CRITERION OF THE DISPERSION TERM
 =  4.032    (WHEN MIN. R.F.=1)  AT K=  17, I=   1, J=  90
     1 CALLS TO GCG PACKAGE FOR TRANSPORT TIME STEP 885 IN FLOW TIME STEP   1 STRESS PERIOD   1
     8 TOTAL ITERATIONS
  MAXIMUM CONCENTRATION CHANGES FOR EACH ITERATION:
  MAX. CHANGE LAYER,ROW,COL MAX. CHANGE LAYER,ROW,COL MAX. CHANGE LAYER,ROW,COL MAX. CHANGE LAYER,ROW,COL MAX. CHANGE LAYER,ROW,COL
 ------------------------------------------------------------------------------------------------------------------------------------
   0.5195E-01 ( 20,  1, 87)  0.4307E-02 ( 19,  1, 89)  0.2053E-02 ( 17,  1, 86)  0.4905E-03 ( 20,  1, 89)  0.9204E-04 ( 16,  1, 89)
   0.2123E-04 ( 20,  1, 89)  0.2305E-04 ( 16,  1, 90)  0.6336E-06 ( 17,  1, 90)
     1 CALLS TO GCG PACKAGE FOR TRANSPORT TIME STEP 885 IN FLOW TIME STEP   1 STRESS PERIOD   1
     8 TOTAL ITERATIONS
  MAXIMUM CONCENTRATION CHANGES FOR EACH ITERATION:
  MAX. CHANGE LAYER,ROW,COL MAX. CHANGE LAYER,ROW,COL MAX. CHANGE LAYER,ROW,COL MAX. CHANGE LAYER,ROW,COL MAX. CHANGE LAYER,ROW,COL
 ------------------------------------------------------------------------------------------------------------------------------------
   0.5309E-01 ( 20,  1, 87)  0.4461E-02 ( 19,  1, 89)  0.1958E-02 ( 18,  1, 86)  0.4378E-03 ( 20,  1, 89)  0.9558E-04 ( 16,  1, 89)
   0.1498E-04 ( 23,  1, 87)  0.1871E-04 ( 16,  1, 90)  0.7530E-06 ( 17,  1, 90)
 
 SOLVING FOR HEAD 


     2 CALLS TO PCG ROUTINE FOR TIME STEP   1 IN STRESS PERIOD    1
     8 TOTAL ITERATIONS

 MAXIMUM HEAD CHANGE FOR EACH ITERATION (1 INDICATES THE FIRST INNER ITERATION):

    HEAD CHANGE    HEAD CHANGE    HEAD CHANGE    HEAD CHANGE    HEAD CHANGE 
   LAYER,ROW,COL  LAYER,ROW,COL  LAYER,ROW,COL  LAYER,ROW,COL  LAYER,ROW,COL
 ---------------------------------------------------------------------------
  1 -0.1369E-01  0 -0.4389E-02  0  0.4790E-02  0  0.1042E-01  0 -0.1186E-01
   ( 15,  1, 86)  (  8,  1, 12)  (  8,  1, 12)  ( 11,  1, 52)  ( 11,  1, 52)
  0  0.2094E-02  0  0.9264E-03  1  0.7437E-03
   ( 11,  1, 50)  ( 11,  1, 65)  ( 11,  1, 59)

 MAXIMUM RESIDUAL FOR EACH ITERATION (1 INDICATES THE FIRST INNER ITERATION):

    RESIDUAL       RESIDUAL       RESIDUAL       RESIDUAL       RESIDUAL    
   LAYER,ROW,COL  LAYER,ROW,COL  LAYER,ROW,COL  LAYER,ROW,COL  LAYER,ROW,COL
 ---------------------------------------------------------------------------
  1 -0.1346E+06  0  0.9503E+05  0  0.9443E+05  0  0.2057E+05  0  -5029.    
   ( 21,  1, 89)  ( 19,  1, 89)  ( 19,  1, 89)  ( 19,  1, 89)  ( 17,  1, 88)
  0  -2831.      0  -2372.      1  -1980.    
   ( 22,  1, 87)  ( 22,  1, 87)  ( 22,  1, 87)


 FLOW MODEL IS TRANSIENT
 FLOW MODEL CONTAINS CONSTANT-HEAD CELLS


 MAXIMUM STEPSIZE DURING WHICH ANY PARTICLE CANNOT MOVE MORE THAN ONE CELL
 =  13.25    (WHEN MIN. R.F.=1)  AT K=  17, I=   1, J=  90

 MAXIMUM STEPSIZE WHICH MEETS STABILITY CRITERION OF THE ADVECTION TERM
 (FOR PURE FINITE-DIFFERENCE OPTION, MIXELM=0) 
 =  8.012    (WHEN MIN. R.F.=1)  AT K=  16, I=   1, J=  90


 TOTAL NUMBER OF POINT SOURCES/SINKS PRESENT IN THE FLOW MODEL =    30

 MAXIMUM STEPSIZE WHICH MEETS STABILITY CRITERION OF THE SINK & SOURCE TERM
 =  12.19    (WHEN MIN. R.F.=1)  AT K=  17, I=   1, J=  91

 MAXIMUM STEPSIZE WHICH MEETS STABILITY CRITERION OF THE DISPERSION TERM
 =  4.386    (WHEN MIN. R.F.=1)  AT K=  17, I=   1, J=  90
     1 CALLS TO GCG PACKAGE FOR TRANSPORT TIME STEP 886 IN FLOW TIME STEP   1 STRESS PERIOD   1
    10 TOTAL ITERATIONS
     1 CALLS TO GCG PACKAGE FOR TRANSPORT TIME STEP 886 IN FLOW TIME STEP   1 STRESS PERIOD   1
     8 TOTAL ITERATIONS
 
 SOLVING FOR HEAD 


     2 CALLS TO PCG ROUTINE FOR TIME STEP   1 IN STRESS PERIOD    1
     9 TOTAL ITERATIONS

 MAXIMUM HEAD CHANGE FOR EACH ITERATION (1 INDICATES THE FIRST INNER ITERATION):

    HEAD CHANGE    HEAD CHANGE    HEAD CHANGE    HEAD CHANGE    HEAD CHANGE 
   LAYER,ROW,COL  LAYER,ROW,COL  LAYER,ROW,COL  LAYER,ROW,COL  LAYER,ROW,COL
 ---------------------------------------------------------------------------
  1  0.1363E-01  0  0.5509E-02  0 -0.3379E-02  0 -0.1527E-01  0  0.1331E-01
   ( 15,  1, 86)  ( 11,  1, 58)  (  8,  1, 12)  ( 11,  1, 58)  ( 11,  1, 58)
  0 -0.3707E-02  0 -0.1142E-02  0 -0.4856E-03  1 -0.5355E-03
   ( 11,  1, 53)  ( 11,  1, 59)  ( 11,  1, 47)  ( 11,  1, 54)

 MAXIMUM RESIDUAL FOR EACH ITERATION (1 INDICATES THE FIRST INNER ITERATION):

    RESIDUAL       RESIDUAL       RESIDUAL       RESIDUAL       RESIDUAL    
   LAYER,ROW,COL  LAYER,ROW,COL  LAYER,ROW,COL  LAYER,ROW,COL  LAYER,ROW,COL
 ---------------------------------------------------------------------------
  1  0.1369E+06  0 -0.9772E+05  0 -0.9677E+05  0 -0.5117E+05  0   5722.    
   ( 21,  1, 89)  ( 19,  1, 89)  ( 19,  1, 89)  ( 19,  1, 89)  ( 17,  1, 88)
  0   2980.      0   2533.      0   1740.      1   1538.    
   ( 17,  1, 88)  ( 22,  1, 87)  ( 22,  1, 87)  ( 22,  1, 87)


 FLOW MODEL IS TRANSIENT
 FLOW MODEL CONTAINS CONSTANT-HEAD CELLS


 MAXIMUM STEPSIZE DURING WHICH ANY PARTICLE CANNOT MOVE MORE THAN ONE CELL
 =  12.89    (WHEN MIN. R.F.=1)  AT K=  17, I=   1, J=  90

 MAXIMUM STEPSIZE WHICH MEETS STABILITY CRITERION OF THE ADVECTION TERM
 (FOR PURE FINITE-DIFFERENCE OPTION, MIXELM=0) 
 =  8.054    (WHEN MIN. R.F.=1)  AT K=  16, I=   1, J=  90


 TOTAL NUMBER OF POINT SOURCES/SINKS PRESENT IN THE FLOW MODEL =    30

 MAXIMUM STEPSIZE WHICH MEETS STABILITY CRITERION OF THE SINK & SOURCE TERM
 =  12.26    (WHEN MIN. R.F.=1)  AT K=  17, I=   1, J=  91

 MAXIMUM STEPSIZE WHICH MEETS STABILITY CRITERION OF THE DISPERSION TERM
 =  4.037    (WHEN MIN. R.F.=1)  AT K=  17, I=   1, J=  90
     1 CALLS TO GCG PACKAGE FOR TRANSPORT TIME STEP 887 IN FLOW TIME STEP   1 STRESS PERIOD   1
     8 TOTAL ITERATIONS
     1 CALLS TO GCG PACKAGE FOR TRANSPORT TIME STEP 887 IN FLOW TIME STEP   1 STRESS PERIOD   1
     8 TOTAL ITERATIONS
 
 SOLVING FOR HEAD 


     2 CALLS TO PCG ROUTINE FOR TIME STEP   1 IN STRESS PERIOD    1
     9 TOTAL ITERATIONS

 MAXIMUM HEAD CHANGE FOR EACH ITERATION (1 INDICATES THE FIRST INNER ITERATION):

    HEAD CHANGE    HEAD CHANGE    HEAD CHANGE    HEAD CHANGE    HEAD CHANGE 
   LAYER,ROW,COL  LAYER,ROW,COL  LAYER,ROW,COL  LAYER,ROW,COL  LAYER,ROW,COL
 ---------------------------------------------------------------------------
  1 -0.1384E-01  0 -0.5228E-02  0  0.5853E-02  0  0.9923E-02  0 -0.9442E-02
   ( 15,  1, 86)  (  7,  1, 12)  (  8,  1, 12)  (  8,  1, 48)  (  6,  1, 47)
  0  0.3054E-02  0  0.1227E-02  0  0.5651E-03  1  0.4279E-03
   ( 11,  1, 68)  ( 11,  1, 55)  ( 11,  1, 71)  ( 11,  1, 49)

 MAXIMUM RESIDUAL FOR EACH ITERATION (1 INDICATES THE FIRST INNER ITERATION):

    RESIDUAL       RESIDUAL       RESIDUAL       RESIDUAL       RESIDUAL    
   LAYER,ROW,COL  LAYER,ROW,COL  LAYER,ROW,COL  LAYER,ROW,COL  LAYER,ROW,COL
 ---------------------------------------------------------------------------
  1 -0.1372E+06  0  0.9700E+05  0  0.9659E+05  0  0.4366E+05  0   5845.    
   ( 21,  1, 89)  ( 19,  1, 89)  ( 19,  1, 89)  ( 19,  1, 89)  ( 17,  1, 87)
  0  -2808.      0  -2558.      0  -831.1      1  -724.3    
   ( 22,  1, 87)  ( 22,  1, 87)  ( 22,  1, 87)  ( 22,  1, 87)


 FLOW MODEL IS TRANSIENT
 FLOW MODEL CONTAINS CONSTANT-HEAD CELLS


 MAXIMUM STEPSIZE DURING WHICH ANY PARTICLE CANNOT MOVE MORE THAN ONE CELL
 =  13.23    (WHEN MIN. R.F.=1)  AT K=  17, I=   1, J=  90

 MAXIMUM STEPSIZE WHICH MEETS STABILITY CRITERION OF THE ADVECTION TERM
 (FOR PURE FINITE-DIFFERENCE OPTION, MIXELM=0) 
 =  8.003    (WHEN MIN. R.F.=1)  AT K=  16, I=   1, J=  90


 TOTAL NUMBER OF POINT SOURCES/SINKS PRESENT IN THE FLOW MODEL =    30

 MAXIMUM STEPSIZE WHICH MEETS STABILITY CRITERION OF THE SINK & SOURCE TERM
 =  12.17    (WHEN MIN. R.F.=1)  AT K=  17, I=   1, J=  91

 MAXIMUM STEPSIZE WHICH MEETS STABILITY CRITERION OF THE DISPERSION TERM
 =  4.382    (WHEN MIN. R.F.=1)  AT K=  17, I=   1, J=  90
     1 CALLS TO GCG PACKAGE FOR TRANSPORT TIME STEP 888 IN FLOW TIME STEP   1 STRESS PERIOD   1
     9 TOTAL ITERATIONS
     1 CALLS TO GCG PACKAGE FOR TRANSPORT TIME STEP 888 IN FLOW TIME STEP   1 STRESS PERIOD   1
     8 TOTAL ITERATIONS
 
 SOLVING FOR HEAD 


     2 CALLS TO PCG ROUTINE FOR TIME STEP   1 IN STRESS PERIOD    1
     8 TOTAL ITERATIONS

 MAXIMUM HEAD CHANGE FOR EACH ITERATION (1 INDICATES THE FIRST INNER ITERATION):

    HEAD CHANGE    HEAD CHANGE    HEAD CHANGE    HEAD CHANGE    HEAD CHANGE 
   LAYER,ROW,COL  LAYER,ROW,COL  LAYER,ROW,COL  LAYER,ROW,COL  LAYER,ROW,COL
 ---------------------------------------------------------------------------
  1  0.1336E-01  0 -0.3961E-02  0 -0.3188E-02  0 -0.1159E-01  0  0.1365E-01
   ( 15,  1, 86)  ( 17,  1, 89)  (  7,  1, 12)  ( 11,  1, 49)  ( 11,  1, 49)
  0 -0.2406E-02  0 -0.8796E-03  1 -0.5967E-03
   ( 11,  1, 52)  ( 11,  1, 67)  ( 11,  1, 40)

 MAXIMUM RESIDUAL FOR EACH ITERATION (1 INDICATES THE FIRST INNER ITERATION):

    RESIDUAL       RESIDUAL       RESIDUAL       RESIDUAL       RESIDUAL    
   LAYER,ROW,COL  LAYER,ROW,COL  LAYER,ROW,COL  LAYER,ROW,COL  LAYER,ROW,COL
 ---------------------------------------------------------------------------
  1  0.1363E+06  0 -0.9674E+05  0 -0.9088E+05  0 -0.2419E+05  0  -5262.    
   ( 21,  1, 89)  ( 19,  1, 89)  ( 19,  1, 89)  ( 19,  1, 89)  ( 17,  1, 87)
  0   2798.      0   2476.      1   2022.    
   ( 22,  1, 87)  ( 22,  1, 87)  ( 22,  1, 87)


 FLOW MODEL IS TRANSIENT
 FLOW MODEL CONTAINS CONSTANT-HEAD CELLS


 MAXIMUM STEPSIZE DURING WHICH ANY PARTICLE CANNOT MOVE MORE THAN ONE CELL
 =  12.83    (WHEN MIN. R.F.=1)  AT K=  17, I=   1, J=  90

 MAXIMUM STEPSIZE WHICH MEETS STABILITY CRITERION OF THE ADVECTION TERM
 (FOR PURE FINITE-DIFFERENCE OPTION, MIXELM=0) 
 =  8.029    (WHEN MIN. R.F.=1)  AT K=  16, I=   1, J=  90


 TOTAL NUMBER OF POINT SOURCES/SINKS PRESENT IN THE FLOW MODEL =    30

 MAXIMUM STEPSIZE WHICH MEETS STABILITY CRITERION OF THE SINK & SOURCE TERM
 =  12.19    (WHEN MIN. R.F.=1)  AT K=  17, I=   1, J=  91

 MAXIMUM STEPSIZE WHICH MEETS STABILITY CRITERION OF THE DISPERSION TERM
 =  4.019    (WHEN MIN. R.F.=1)  AT K=  17, I=   1, J=  90
     1 CALLS TO GCG PACKAGE FOR TRANSPORT TIME STEP 889 IN FLOW TIME STEP   1 STRESS PERIOD   1
     8 TOTAL ITERATIONS
     1 CALLS TO GCG PACKAGE FOR TRANSPORT TIME STEP 889 IN FLOW TIME STEP   1 STRESS PERIOD   1
     8 TOTAL ITERATIONS
 
 SOLVING FOR HEAD 


     2 CALLS TO PCG ROUTINE FOR TIME STEP   1 IN STRESS PERIOD    1
     9 TOTAL ITERATIONS

 MAXIMUM HEAD CHANGE FOR EACH ITERATION (1 INDICATES THE FIRST INNER ITERATION):

    HEAD CHANGE    HEAD CHANGE    HEAD CHANGE    HEAD CHANGE    HEAD CHANGE 
   LAYER,ROW,COL  LAYER,ROW,COL  LAYER,ROW,COL  LAYER,ROW,COL  LAYER,ROW,COL
 ---------------------------------------------------------------------------
  1 -0.1376E-01  0 -0.6990E-02  0  0.6529E-02  0 -0.9413E-02  0  0.6928E-02
   ( 15,  1, 86)  (  9,  1, 12)  (  8,  1, 12)  (  5,  1, 43)  (  8,  1, 48)
  0  0.5089E-02  0 -0.1736E-02  0  0.7807E-03  1  0.6756E-03
   ( 11,  1, 49)  ( 11,  1, 49)  ( 11,  1, 52)  ( 11,  1, 58)

 MAXIMUM RESIDUAL FOR EACH ITERATION (1 INDICATES THE FIRST INNER ITERATION):

    RESIDUAL       RESIDUAL       RESIDUAL       RESIDUAL       RESIDUAL    
   LAYER,ROW,COL  LAYER,ROW,COL  LAYER,ROW,COL  LAYER,ROW,COL  LAYER,ROW,COL
 ---------------------------------------------------------------------------
  1 -0.1367E+06  0  0.9603E+05  0  0.9579E+05  0  0.7465E+05  0   6477.    
   ( 21,  1, 89)  ( 19,  1, 89)  ( 19,  1, 89)  ( 19,  1, 89)  ( 17,  1, 87)
  0  -3025.      0  -2531.      0  -1458.      1  -1289.    
   ( 17,  1, 88)  ( 22,  1, 87)  ( 22,  1, 87)  ( 22,  1, 87)


 FLOW MODEL IS TRANSIENT
 FLOW MODEL CONTAINS CONSTANT-HEAD CELLS


 MAXIMUM STEPSIZE DURING WHICH ANY PARTICLE CANNOT MOVE MORE THAN ONE CELL
 =  13.17    (WHEN MIN. R.F.=1)  AT K=  17, I=   1, J=  90

 MAXIMUM STEPSIZE WHICH MEETS STABILITY CRITERION OF THE ADVECTION TERM
 (FOR PURE FINITE-DIFFERENCE OPTION, MIXELM=0) 
 =  7.981    (WHEN MIN. R.F.=1)  AT K=  16, I=   1, J=  90


 TOTAL NUMBER OF POINT SOURCES/SINKS PRESENT IN THE FLOW MODEL =    30

 MAXIMUM STEPSIZE WHICH MEETS STABILITY CRITERION OF THE SINK & SOURCE TERM
 =  12.09    (WHEN MIN. R.F.=1)  AT K=  17, I=   1, J=  91

 MAXIMUM STEPSIZE WHICH MEETS STABILITY CRITERION OF THE DISPERSION TERM
 =  4.353    (WHEN MIN. R.F.=1)  AT K=  17, I=   1, J=  90
     1 CALLS TO GCG PACKAGE FOR TRANSPORT TIME STEP 890 IN FLOW TIME STEP   1 STRESS PERIOD   1
     8 TOTAL ITERATIONS
  MAXIMUM CONCENTRATION CHANGES FOR EACH ITERATION:
  MAX. CHANGE LAYER,ROW,COL MAX. CHANGE LAYER,ROW,COL MAX. CHANGE LAYER,ROW,COL MAX. CHANGE LAYER,ROW,COL MAX. CHANGE LAYER,ROW,COL
 ------------------------------------------------------------------------------------------------------------------------------------
   0.4875E-01 ( 20,  1, 87)  0.3298E-02 ( 19,  1, 87)  0.2191E-02 ( 18,  1, 87)  0.2154E-03 ( 16,  1, 88)  0.1446E-03 ( 16,  1, 89)
   0.2813E-04 ( 16,  1, 90)  0.3202E-05 ( 21,  1, 78)  0.2126E-06 ( 15,  1, 89)
     1 CALLS TO GCG PACKAGE FOR TRANSPORT TIME STEP 890 IN FLOW TIME STEP   1 STRESS PERIOD   1
     8 TOTAL ITERATIONS
  MAXIMUM CONCENTRATION CHANGES FOR EACH ITERATION:
  MAX. CHANGE LAYER,ROW,COL MAX. CHANGE LAYER,ROW,COL MAX. CHANGE LAYER,ROW,COL MAX. CHANGE LAYER,ROW,COL MAX. CHANGE LAYER,ROW,COL
 ------------------------------------------------------------------------------------------------------------------------------------
   0.4968E-01 ( 20,  1, 87)  0.3231E-02 ( 19,  1, 87)  0.2183E-02 ( 18,  1, 87)  0.2109E-03 ( 16,  1, 88)  0.1276E-03 ( 17,  1, 89)
   0.3029E-04 ( 16,  1, 90)  0.4184E-05 ( 17,  1, 90)  0.5525E-06 ( 16,  1, 89)



 >>>>>>>>>>>>>>>>>>>>>>>>>>>>>>>>>>>>>>>>>>>>>>>>>>>>>>>FOR COMPONENT NO. 01<<<<<<<<<<<<<<<<<<<<<<<<<<<<<<<<<<<<<<<<<<<<<<<<<<<<<<<


                                            -------------------------------------------
                                                      TRANSPORT STEP NO.  890
                                            -------------------------------------------

 TOTAL ELAPSED TIME SINCE BEGINNING OF SIMULATION =   44500.00    D   
 .....................................................................

                     CUMMULATIVE MASS BUDGETS AT END OF TRANSPORT STEP  890, TIME STEP    1, STRESS PERIOD    1
                     ------------------------------------------------------------------------------------------

                                                             IN                           OUT
                                                      ----------------             ----------------
                               CONSTANT CONCENTRATION:    0.000000                    0.000000    
                                        CONSTANT HEAD:   0.1760576E+10              -0.1760364E+10
                                                WELLS:    0.000000                    0.000000    
                                             RECHARGE:    0.000000                    0.000000    
                               1ST/0TH ORDER REACTION:    0.000000                    0.000000    
                                MASS STORAGE (SOLUTE):   0.2461132E+09              -0.2463259E+09
                            ---------------------------------------------------------------------------
                                              [TOTAL]:   0.2006691E+10 KG           -0.2006692E+10 KG  

                                                          NET (IN - OUT):   -419.1410    
                                                   DISCREPANCY (PERCENT):  -0.2088717E-04



 >>>>>>>>>>>>>>>>>>>>>>>>>>>>>>>>>>>>>>>>>>>>>>>>>>>>>>>FOR COMPONENT NO. 02<<<<<<<<<<<<<<<<<<<<<<<<<<<<<<<<<<<<<<<<<<<<<<<<<<<<<<<


                                            -------------------------------------------
                                                      TRANSPORT STEP NO.  890
                                            -------------------------------------------

 TOTAL ELAPSED TIME SINCE BEGINNING OF SIMULATION =   44500.00    D   
 .....................................................................

                     CUMMULATIVE MASS BUDGETS AT END OF TRANSPORT STEP  890, TIME STEP    1, STRESS PERIOD    1
                     ------------------------------------------------------------------------------------------

                                                             IN                           OUT
                                                      ----------------             ----------------
                               CONSTANT CONCENTRATION:    0.000000                    0.000000    
                                        CONSTANT HEAD:    0.000000                  -0.3885144E+12
                                                WELLS:    0.000000                    0.000000    
                                             RECHARGE:    0.000000                    0.000000    
                               1ST/0TH ORDER REACTION:   0.7364750E+12                0.000000    
                                MASS STORAGE (SOLUTE):   0.1517584E+12              -0.4997192E+12
                            ---------------------------------------------------------------------------
                                              [TOTAL]:   0.8882354E+12 KG           -0.8882356E+12 KG  

                                                          NET (IN - OUT):   -125675.5    
                                                   DISCREPANCY (PERCENT):  -0.1414890E-04
 
 SOLVING FOR HEAD 


     2 CALLS TO PCG ROUTINE FOR TIME STEP   1 IN STRESS PERIOD    1
     8 TOTAL ITERATIONS

 MAXIMUM HEAD CHANGE FOR EACH ITERATION (1 INDICATES THE FIRST INNER ITERATION):

    HEAD CHANGE    HEAD CHANGE    HEAD CHANGE    HEAD CHANGE    HEAD CHANGE 
   LAYER,ROW,COL  LAYER,ROW,COL  LAYER,ROW,COL  LAYER,ROW,COL  LAYER,ROW,COL
 ---------------------------------------------------------------------------
  1  0.1375E-01  0 -0.4246E-02  0 -0.3665E-02  0  0.1022E-01  0 -0.1095E-01
   ( 15,  1, 86)  ( 17,  1, 89)  (  8,  1, 12)  ( 11,  1, 50)  ( 11,  1, 50)
  0  0.2175E-02  0 -0.6541E-03  1 -0.4996E-03
   ( 11,  1, 49)  ( 11,  1, 58)  ( 11,  1, 66)

 MAXIMUM RESIDUAL FOR EACH ITERATION (1 INDICATES THE FIRST INNER ITERATION):

    RESIDUAL       RESIDUAL       RESIDUAL       RESIDUAL       RESIDUAL    
   LAYER,ROW,COL  LAYER,ROW,COL  LAYER,ROW,COL  LAYER,ROW,COL  LAYER,ROW,COL
 ---------------------------------------------------------------------------
  1  0.1348E+06  0 -0.9564E+05  0 -0.9481E+05  0 -0.2213E+05  0   5228.    
   ( 21,  1, 89)  ( 19,  1, 89)  ( 19,  1, 89)  ( 19,  1, 89)  ( 17,  1, 88)
  0   2760.      0   2469.      1   2020.    
   ( 22,  1, 87)  ( 22,  1, 87)  ( 22,  1, 87)


 FLOW MODEL IS TRANSIENT
 FLOW MODEL CONTAINS CONSTANT-HEAD CELLS


 MAXIMUM STEPSIZE DURING WHICH ANY PARTICLE CANNOT MOVE MORE THAN ONE CELL
 =  12.84    (WHEN MIN. R.F.=1)  AT K=  17, I=   1, J=  90

 MAXIMUM STEPSIZE WHICH MEETS STABILITY CRITERION OF THE ADVECTION TERM
 (FOR PURE FINITE-DIFFERENCE OPTION, MIXELM=0) 
 =  8.032    (WHEN MIN. R.F.=1)  AT K=  16, I=   1, J=  90


 TOTAL NUMBER OF POINT SOURCES/SINKS PRESENT IN THE FLOW MODEL =    30

 MAXIMUM STEPSIZE WHICH MEETS STABILITY CRITERION OF THE SINK & SOURCE TERM
 =  12.19    (WHEN MIN. R.F.=1)  AT K=  17, I=   1, J=  91

 MAXIMUM STEPSIZE WHICH MEETS STABILITY CRITERION OF THE DISPERSION TERM
 =  4.022    (WHEN MIN. R.F.=1)  AT K=  17, I=   1, J=  90
     1 CALLS TO GCG PACKAGE FOR TRANSPORT TIME STEP 891 IN FLOW TIME STEP   1 STRESS PERIOD   1
     8 TOTAL ITERATIONS
     1 CALLS TO GCG PACKAGE FOR TRANSPORT TIME STEP 891 IN FLOW TIME STEP   1 STRESS PERIOD   1
     8 TOTAL ITERATIONS
 
 SOLVING FOR HEAD 


     2 CALLS TO PCG ROUTINE FOR TIME STEP   1 IN STRESS PERIOD    1
     9 TOTAL ITERATIONS

 MAXIMUM HEAD CHANGE FOR EACH ITERATION (1 INDICATES THE FIRST INNER ITERATION):

    HEAD CHANGE    HEAD CHANGE    HEAD CHANGE    HEAD CHANGE    HEAD CHANGE 
   LAYER,ROW,COL  LAYER,ROW,COL  LAYER,ROW,COL  LAYER,ROW,COL  LAYER,ROW,COL
 ---------------------------------------------------------------------------
  1 -0.1371E-01  0 -0.7686E-02  0  0.5003E-02  0  0.8455E-02  0 -0.6114E-02
   ( 15,  1, 86)  (  6,  1, 40)  (  7,  1, 12)  (  8,  1, 44)  ( 10,  1, 50)
  0  0.4341E-02  0 -0.1460E-02  0  0.6642E-03  1 -0.5334E-03
   ( 11,  1, 59)  ( 11,  1, 59)  ( 11,  1, 63)  ( 11,  1, 64)

 MAXIMUM RESIDUAL FOR EACH ITERATION (1 INDICATES THE FIRST INNER ITERATION):

    RESIDUAL       RESIDUAL       RESIDUAL       RESIDUAL       RESIDUAL    
   LAYER,ROW,COL  LAYER,ROW,COL  LAYER,ROW,COL  LAYER,ROW,COL  LAYER,ROW,COL
 ---------------------------------------------------------------------------
  1 -0.1348E+06  0  0.9521E+05  0  0.9465E+05  0  0.7681E+05  0   6359.    
   ( 21,  1, 89)  ( 19,  1, 89)  ( 19,  1, 89)  ( 19,  1, 89)  ( 17,  1, 87)
  0  -3018.      0  -2561.      0  -950.2      1  -830.5    
   ( 17,  1, 88)  ( 22,  1, 87)  ( 22,  1, 87)  ( 22,  1, 87)


 FLOW MODEL IS TRANSIENT
 FLOW MODEL CONTAINS CONSTANT-HEAD CELLS


 MAXIMUM STEPSIZE DURING WHICH ANY PARTICLE CANNOT MOVE MORE THAN ONE CELL
 =  13.19    (WHEN MIN. R.F.=1)  AT K=  17, I=   1, J=  90

 MAXIMUM STEPSIZE WHICH MEETS STABILITY CRITERION OF THE ADVECTION TERM
 (FOR PURE FINITE-DIFFERENCE OPTION, MIXELM=0) 
 =  7.987    (WHEN MIN. R.F.=1)  AT K=  16, I=   1, J=  90


 TOTAL NUMBER OF POINT SOURCES/SINKS PRESENT IN THE FLOW MODEL =    30

 MAXIMUM STEPSIZE WHICH MEETS STABILITY CRITERION OF THE SINK & SOURCE TERM
 =  12.13    (WHEN MIN. R.F.=1)  AT K=  17, I=   1, J=  91

 MAXIMUM STEPSIZE WHICH MEETS STABILITY CRITERION OF THE DISPERSION TERM
 =  4.368    (WHEN MIN. R.F.=1)  AT K=  17, I=   1, J=  90
     1 CALLS TO GCG PACKAGE FOR TRANSPORT TIME STEP 892 IN FLOW TIME STEP   1 STRESS PERIOD   1
     7 TOTAL ITERATIONS
     1 CALLS TO GCG PACKAGE FOR TRANSPORT TIME STEP 892 IN FLOW TIME STEP   1 STRESS PERIOD   1
     8 TOTAL ITERATIONS
 
 SOLVING FOR HEAD 


     2 CALLS TO PCG ROUTINE FOR TIME STEP   1 IN STRESS PERIOD    1
     9 TOTAL ITERATIONS

 MAXIMUM HEAD CHANGE FOR EACH ITERATION (1 INDICATES THE FIRST INNER ITERATION):

    HEAD CHANGE    HEAD CHANGE    HEAD CHANGE    HEAD CHANGE    HEAD CHANGE 
   LAYER,ROW,COL  LAYER,ROW,COL  LAYER,ROW,COL  LAYER,ROW,COL  LAYER,ROW,COL
 ---------------------------------------------------------------------------
  1  0.1353E-01  0 -0.4120E-02  0 -0.2589E-02  0  0.6400E-02  0 -0.7068E-02
   ( 15,  1, 86)  ( 17,  1, 89)  (  8,  1, 12)  ( 11,  1, 63)  ( 11,  1, 63)
  0 -0.2240E-02  0 -0.1202E-02  0 -0.6264E-03  1  0.5115E-03
   ( 11,  1, 69)  ( 11,  1, 58)  ( 11,  1, 65)  ( 11,  1, 65)

 MAXIMUM RESIDUAL FOR EACH ITERATION (1 INDICATES THE FIRST INNER ITERATION):

    RESIDUAL       RESIDUAL       RESIDUAL       RESIDUAL       RESIDUAL    
   LAYER,ROW,COL  LAYER,ROW,COL  LAYER,ROW,COL  LAYER,ROW,COL  LAYER,ROW,COL
 ---------------------------------------------------------------------------
  1  0.1352E+06  0 -0.9568E+05  0 -0.9447E+05  0 -0.1663E+05  0   4411.    
   ( 21,  1, 89)  ( 19,  1, 89)  ( 19,  1, 89)  ( 19,  1, 89)  ( 17,  1, 88)
  0   2741.      0   2227.      0   620.3      1   510.0    
   ( 22,  1, 87)  ( 22,  1, 87)  ( 22,  1, 87)  ( 22,  1, 87)


 FLOW MODEL IS TRANSIENT
 FLOW MODEL CONTAINS CONSTANT-HEAD CELLS


 MAXIMUM STEPSIZE DURING WHICH ANY PARTICLE CANNOT MOVE MORE THAN ONE CELL
 =  12.84    (WHEN MIN. R.F.=1)  AT K=  17, I=   1, J=  90

 MAXIMUM STEPSIZE WHICH MEETS STABILITY CRITERION OF THE ADVECTION TERM
 (FOR PURE FINITE-DIFFERENCE OPTION, MIXELM=0) 
 =  8.030    (WHEN MIN. R.F.=1)  AT K=  16, I=   1, J=  90


 TOTAL NUMBER OF POINT SOURCES/SINKS PRESENT IN THE FLOW MODEL =    30

 MAXIMUM STEPSIZE WHICH MEETS STABILITY CRITERION OF THE SINK & SOURCE TERM
 =  12.19    (WHEN MIN. R.F.=1)  AT K=  17, I=   1, J=  91

 MAXIMUM STEPSIZE WHICH MEETS STABILITY CRITERION OF THE DISPERSION TERM
 =  4.022    (WHEN MIN. R.F.=1)  AT K=  17, I=   1, J=  90
     1 CALLS TO GCG PACKAGE FOR TRANSPORT TIME STEP 893 IN FLOW TIME STEP   1 STRESS PERIOD   1
     8 TOTAL ITERATIONS
     1 CALLS TO GCG PACKAGE FOR TRANSPORT TIME STEP 893 IN FLOW TIME STEP   1 STRESS PERIOD   1
     8 TOTAL ITERATIONS
 
 SOLVING FOR HEAD 


     2 CALLS TO PCG ROUTINE FOR TIME STEP   1 IN STRESS PERIOD    1
     9 TOTAL ITERATIONS

 MAXIMUM HEAD CHANGE FOR EACH ITERATION (1 INDICATES THE FIRST INNER ITERATION):

    HEAD CHANGE    HEAD CHANGE    HEAD CHANGE    HEAD CHANGE    HEAD CHANGE 
   LAYER,ROW,COL  LAYER,ROW,COL  LAYER,ROW,COL  LAYER,ROW,COL  LAYER,ROW,COL
 ---------------------------------------------------------------------------
  1 -0.1332E-01  0  0.3719E-02  0  0.2478E-02  0  0.7042E-02  0 -0.9218E-02
   ( 15,  1, 86)  ( 17,  1, 89)  (  8,  1, 12)  ( 11,  1, 57)  ( 11,  1, 57)
  0  0.2447E-02  0  0.1016E-02  0  0.6763E-03  1 -0.6598E-03
   ( 11,  1, 56)  ( 11,  1, 70)  ( 11,  1, 49)  ( 11,  1, 70)

 MAXIMUM RESIDUAL FOR EACH ITERATION (1 INDICATES THE FIRST INNER ITERATION):

    RESIDUAL       RESIDUAL       RESIDUAL       RESIDUAL       RESIDUAL    
   LAYER,ROW,COL  LAYER,ROW,COL  LAYER,ROW,COL  LAYER,ROW,COL  LAYER,ROW,COL
 ---------------------------------------------------------------------------
  1 -0.1323E+06  0  0.9342E+05  0  0.9215E+05  0  0.1624E+05  0   4543.    
   ( 21,  1, 89)  ( 19,  1, 89)  ( 19,  1, 89)  ( 19,  1, 89)  ( 17,  1, 87)
  0  -2788.      0  -2380.      0  -810.4      1  -701.0    
   ( 22,  1, 87)  ( 22,  1, 87)  ( 22,  1, 87)  ( 22,  1, 87)


 FLOW MODEL IS TRANSIENT
 FLOW MODEL CONTAINS CONSTANT-HEAD CELLS


 MAXIMUM STEPSIZE DURING WHICH ANY PARTICLE CANNOT MOVE MORE THAN ONE CELL
 =  13.23    (WHEN MIN. R.F.=1)  AT K=  17, I=   1, J=  90

 MAXIMUM STEPSIZE WHICH MEETS STABILITY CRITERION OF THE ADVECTION TERM
 (FOR PURE FINITE-DIFFERENCE OPTION, MIXELM=0) 
 =  8.006    (WHEN MIN. R.F.=1)  AT K=  16, I=   1, J=  90


 TOTAL NUMBER OF POINT SOURCES/SINKS PRESENT IN THE FLOW MODEL =    30

 MAXIMUM STEPSIZE WHICH MEETS STABILITY CRITERION OF THE SINK & SOURCE TERM
 =  12.18    (WHEN MIN. R.F.=1)  AT K=  17, I=   1, J=  91

 MAXIMUM STEPSIZE WHICH MEETS STABILITY CRITERION OF THE DISPERSION TERM
 =  4.378    (WHEN MIN. R.F.=1)  AT K=  17, I=   1, J=  90
     1 CALLS TO GCG PACKAGE FOR TRANSPORT TIME STEP 894 IN FLOW TIME STEP   1 STRESS PERIOD   1
     9 TOTAL ITERATIONS
     1 CALLS TO GCG PACKAGE FOR TRANSPORT TIME STEP 894 IN FLOW TIME STEP   1 STRESS PERIOD   1
     8 TOTAL ITERATIONS
 
 SOLVING FOR HEAD 


     2 CALLS TO PCG ROUTINE FOR TIME STEP   1 IN STRESS PERIOD    1
     9 TOTAL ITERATIONS

 MAXIMUM HEAD CHANGE FOR EACH ITERATION (1 INDICATES THE FIRST INNER ITERATION):

    HEAD CHANGE    HEAD CHANGE    HEAD CHANGE    HEAD CHANGE    HEAD CHANGE 
   LAYER,ROW,COL  LAYER,ROW,COL  LAYER,ROW,COL  LAYER,ROW,COL  LAYER,ROW,COL
 ---------------------------------------------------------------------------
  1  0.1340E-01  0 -0.3684E-02  0 -0.2300E-02  0 -0.8395E-02  0  0.8716E-02
   ( 15,  1, 86)  ( 17,  1, 89)  (  7,  1, 12)  ( 10,  1, 50)  (  8,  1, 49)
  0 -0.1479E-02  0 -0.1139E-02  0 -0.9301E-03  1  0.7792E-03
   ( 11,  1, 69)  ( 11,  1, 55)  ( 11,  1, 65)  ( 11,  1, 65)

 MAXIMUM RESIDUAL FOR EACH ITERATION (1 INDICATES THE FIRST INNER ITERATION):

    RESIDUAL       RESIDUAL       RESIDUAL       RESIDUAL       RESIDUAL    
   LAYER,ROW,COL  LAYER,ROW,COL  LAYER,ROW,COL  LAYER,ROW,COL  LAYER,ROW,COL
 ---------------------------------------------------------------------------
  1  0.1322E+06  0 -0.9203E+05  0 -0.9028E+05  0 -0.3407E+05  0  -5922.    
   ( 21,  1, 89)  ( 19,  1, 89)  ( 19,  1, 89)  ( 19,  1, 89)  ( 17,  1, 87)
  0   2900.      0   2613.      0   941.1      1   818.3    
   ( 22,  1, 87)  ( 22,  1, 87)  ( 22,  1, 87)  ( 22,  1, 87)


 FLOW MODEL IS TRANSIENT
 FLOW MODEL CONTAINS CONSTANT-HEAD CELLS


 MAXIMUM STEPSIZE DURING WHICH ANY PARTICLE CANNOT MOVE MORE THAN ONE CELL
 =  12.86    (WHEN MIN. R.F.=1)  AT K=  17, I=   1, J=  90

 MAXIMUM STEPSIZE WHICH MEETS STABILITY CRITERION OF THE ADVECTION TERM
 (FOR PURE FINITE-DIFFERENCE OPTION, MIXELM=0) 
 =  8.034    (WHEN MIN. R.F.=1)  AT K=  16, I=   1, J=  90


 TOTAL NUMBER OF POINT SOURCES/SINKS PRESENT IN THE FLOW MODEL =    30

 MAXIMUM STEPSIZE WHICH MEETS STABILITY CRITERION OF THE SINK & SOURCE TERM
 =  12.21    (WHEN MIN. R.F.=1)  AT K=  17, I=   1, J=  91

 MAXIMUM STEPSIZE WHICH MEETS STABILITY CRITERION OF THE DISPERSION TERM
 =  4.036    (WHEN MIN. R.F.=1)  AT K=  17, I=   1, J=  90
     1 CALLS TO GCG PACKAGE FOR TRANSPORT TIME STEP 895 IN FLOW TIME STEP   1 STRESS PERIOD   1
     8 TOTAL ITERATIONS
  MAXIMUM CONCENTRATION CHANGES FOR EACH ITERATION:
  MAX. CHANGE LAYER,ROW,COL MAX. CHANGE LAYER,ROW,COL MAX. CHANGE LAYER,ROW,COL MAX. CHANGE LAYER,ROW,COL MAX. CHANGE LAYER,ROW,COL
 ------------------------------------------------------------------------------------------------------------------------------------
   0.5248E-01 ( 20,  1, 87)  0.4193E-02 ( 19,  1, 89)  0.2145E-02 ( 17,  1, 86)  0.4876E-03 ( 20,  1, 89)  0.9545E-04 ( 16,  1, 89)
   0.1935E-04 ( 20,  1, 89)  0.1866E-04 ( 16,  1, 90)  0.7523E-06 ( 17,  1, 90)
     1 CALLS TO GCG PACKAGE FOR TRANSPORT TIME STEP 895 IN FLOW TIME STEP   1 STRESS PERIOD   1
     8 TOTAL ITERATIONS
  MAXIMUM CONCENTRATION CHANGES FOR EACH ITERATION:
  MAX. CHANGE LAYER,ROW,COL MAX. CHANGE LAYER,ROW,COL MAX. CHANGE LAYER,ROW,COL MAX. CHANGE LAYER,ROW,COL MAX. CHANGE LAYER,ROW,COL
 ------------------------------------------------------------------------------------------------------------------------------------
   0.5265E-01 ( 20,  1, 87)  0.4252E-02 ( 19,  1, 89)  0.2029E-02 ( 18,  1, 86)  0.4438E-03 ( 20,  1, 89)  0.9567E-04 ( 16,  1, 89)
   0.1330E-04 ( 23,  1, 87)  0.1627E-04 ( 16,  1, 90)  0.7644E-06 ( 17,  1, 90)
 
 SOLVING FOR HEAD 


     2 CALLS TO PCG ROUTINE FOR TIME STEP   1 IN STRESS PERIOD    1
     8 TOTAL ITERATIONS

 MAXIMUM HEAD CHANGE FOR EACH ITERATION (1 INDICATES THE FIRST INNER ITERATION):

    HEAD CHANGE    HEAD CHANGE    HEAD CHANGE    HEAD CHANGE    HEAD CHANGE 
   LAYER,ROW,COL  LAYER,ROW,COL  LAYER,ROW,COL  LAYER,ROW,COL  LAYER,ROW,COL
 ---------------------------------------------------------------------------
  1 -0.1341E-01  0  0.3715E-02  0  0.2389E-02  0  0.8691E-02  0 -0.9755E-02
   ( 15,  1, 86)  ( 17,  1, 89)  (  8,  1, 12)  ( 11,  1, 50)  ( 11,  1, 51)
  0 -0.2413E-02  0  0.9619E-03  1  0.5003E-03
   ( 11,  1, 70)  ( 11,  1, 70)  ( 11,  1, 41)

 MAXIMUM RESIDUAL FOR EACH ITERATION (1 INDICATES THE FIRST INNER ITERATION):

    RESIDUAL       RESIDUAL       RESIDUAL       RESIDUAL       RESIDUAL    
   LAYER,ROW,COL  LAYER,ROW,COL  LAYER,ROW,COL  LAYER,ROW,COL  LAYER,ROW,COL
 ---------------------------------------------------------------------------
  1 -0.1347E+06  0  0.9562E+05  0  0.9350E+05  0  0.2552E+05  0   5347.    
   ( 21,  1, 89)  ( 19,  1, 89)  ( 19,  1, 89)  ( 19,  1, 89)  ( 17,  1, 87)
  0  -2782.      0  -2478.      1  -2034.    
   ( 22,  1, 87)  ( 22,  1, 87)  ( 22,  1, 87)


 FLOW MODEL IS TRANSIENT
 FLOW MODEL CONTAINS CONSTANT-HEAD CELLS


 MAXIMUM STEPSIZE DURING WHICH ANY PARTICLE CANNOT MOVE MORE THAN ONE CELL
 =  13.21    (WHEN MIN. R.F.=1)  AT K=  17, I=   1, J=  90

 MAXIMUM STEPSIZE WHICH MEETS STABILITY CRITERION OF THE ADVECTION TERM
 (FOR PURE FINITE-DIFFERENCE OPTION, MIXELM=0) 
 =  8.001    (WHEN MIN. R.F.=1)  AT K=  16, I=   1, J=  90


 TOTAL NUMBER OF POINT SOURCES/SINKS PRESENT IN THE FLOW MODEL =    30

 MAXIMUM STEPSIZE WHICH MEETS STABILITY CRITERION OF THE SINK & SOURCE TERM
 =  12.16    (WHEN MIN. R.F.=1)  AT K=  17, I=   1, J=  91

 MAXIMUM STEPSIZE WHICH MEETS STABILITY CRITERION OF THE DISPERSION TERM
 =  4.359    (WHEN MIN. R.F.=1)  AT K=  17, I=   1, J=  90
     1 CALLS TO GCG PACKAGE FOR TRANSPORT TIME STEP 896 IN FLOW TIME STEP   1 STRESS PERIOD   1
     8 TOTAL ITERATIONS
     1 CALLS TO GCG PACKAGE FOR TRANSPORT TIME STEP 896 IN FLOW TIME STEP   1 STRESS PERIOD   1
     8 TOTAL ITERATIONS
 
 SOLVING FOR HEAD 


     2 CALLS TO PCG ROUTINE FOR TIME STEP   1 IN STRESS PERIOD    1
    10 TOTAL ITERATIONS

 MAXIMUM HEAD CHANGE FOR EACH ITERATION (1 INDICATES THE FIRST INNER ITERATION):

    HEAD CHANGE    HEAD CHANGE    HEAD CHANGE    HEAD CHANGE    HEAD CHANGE 
   LAYER,ROW,COL  LAYER,ROW,COL  LAYER,ROW,COL  LAYER,ROW,COL  LAYER,ROW,COL
 ---------------------------------------------------------------------------
  1  0.1386E-01  0  0.5122E-02  0 -0.4504E-02  0  0.9735E-02  0 -0.7051E-02
   ( 15,  1, 86)  ( 11,  1, 40)  (  8,  1, 12)  (  7,  1, 46)  (  7,  1, 48)
  0 -0.2950E-02  0 -0.1342E-02  0 -0.1015E-02  0  0.6094E-03  1  0.1642E-03
   ( 11,  1, 58)  ( 11,  1, 65)  ( 11,  1, 54)  ( 11,  1, 54)  ( 11,  1, 65)

 MAXIMUM RESIDUAL FOR EACH ITERATION (1 INDICATES THE FIRST INNER ITERATION):

    RESIDUAL       RESIDUAL       RESIDUAL       RESIDUAL       RESIDUAL    
   LAYER,ROW,COL  LAYER,ROW,COL  LAYER,ROW,COL  LAYER,ROW,COL  LAYER,ROW,COL
 ---------------------------------------------------------------------------
  1  0.1340E+06  0 -0.9469E+05  0 -0.9400E+05  0 -0.7363E+05  0  -6020.    
   ( 21,  1, 89)  ( 19,  1, 89)  ( 19,  1, 89)  ( 19,  1, 89)  ( 17,  1, 87)
  0   2760.      0   2618.      0   1609.      0   374.9      1   325.6    
   ( 17,  1, 88)  ( 22,  1, 87)  ( 22,  1, 87)  ( 22,  1, 87)  ( 22,  1, 87)


 FLOW MODEL IS TRANSIENT
 FLOW MODEL CONTAINS CONSTANT-HEAD CELLS


 MAXIMUM STEPSIZE DURING WHICH ANY PARTICLE CANNOT MOVE MORE THAN ONE CELL
 =  12.90    (WHEN MIN. R.F.=1)  AT K=  17, I=   1, J=  90

 MAXIMUM STEPSIZE WHICH MEETS STABILITY CRITERION OF THE ADVECTION TERM
 (FOR PURE FINITE-DIFFERENCE OPTION, MIXELM=0) 
 =  8.055    (WHEN MIN. R.F.=1)  AT K=  16, I=   1, J=  90


 TOTAL NUMBER OF POINT SOURCES/SINKS PRESENT IN THE FLOW MODEL =    30

 MAXIMUM STEPSIZE WHICH MEETS STABILITY CRITERION OF THE SINK & SOURCE TERM
 =  12.27    (WHEN MIN. R.F.=1)  AT K=  17, I=   1, J=  91

 MAXIMUM STEPSIZE WHICH MEETS STABILITY CRITERION OF THE DISPERSION TERM
 =  4.047    (WHEN MIN. R.F.=1)  AT K=  17, I=   1, J=  90
     1 CALLS TO GCG PACKAGE FOR TRANSPORT TIME STEP 897 IN FLOW TIME STEP   1 STRESS PERIOD   1
     8 TOTAL ITERATIONS
     1 CALLS TO GCG PACKAGE FOR TRANSPORT TIME STEP 897 IN FLOW TIME STEP   1 STRESS PERIOD   1
     8 TOTAL ITERATIONS
 
 SOLVING FOR HEAD 


     2 CALLS TO PCG ROUTINE FOR TIME STEP   1 IN STRESS PERIOD    1
     8 TOTAL ITERATIONS

 MAXIMUM HEAD CHANGE FOR EACH ITERATION (1 INDICATES THE FIRST INNER ITERATION):

    HEAD CHANGE    HEAD CHANGE    HEAD CHANGE    HEAD CHANGE    HEAD CHANGE 
   LAYER,ROW,COL  LAYER,ROW,COL  LAYER,ROW,COL  LAYER,ROW,COL  LAYER,ROW,COL
 ---------------------------------------------------------------------------
  1 -0.1348E-01  0  0.3857E-02  0  0.2968E-02  0  0.5234E-02  0 -0.7288E-02
   ( 15,  1, 86)  ( 17,  1, 89)  (  8,  1, 12)  ( 11,  1, 51)  ( 11,  1, 51)
  0  0.2280E-02  0  0.8103E-03  1 -0.4471E-03
   ( 11,  1, 51)  ( 11,  1, 67)  ( 11,  1, 43)

 MAXIMUM RESIDUAL FOR EACH ITERATION (1 INDICATES THE FIRST INNER ITERATION):

    RESIDUAL       RESIDUAL       RESIDUAL       RESIDUAL       RESIDUAL    
   LAYER,ROW,COL  LAYER,ROW,COL  LAYER,ROW,COL  LAYER,ROW,COL  LAYER,ROW,COL
 ---------------------------------------------------------------------------
  1 -0.1345E+06  0  0.9544E+05  0  0.9442E+05  0  0.1409E+05  0  -4165.    
   ( 21,  1, 89)  ( 19,  1, 89)  ( 19,  1, 89)  ( 19,  1, 89)  ( 17,  1, 88)
  0  -2852.      0  -2091.      1  -1825.    
   ( 22,  1, 87)  ( 22,  1, 87)  ( 22,  1, 87)


 FLOW MODEL IS TRANSIENT
 FLOW MODEL CONTAINS CONSTANT-HEAD CELLS


 MAXIMUM STEPSIZE DURING WHICH ANY PARTICLE CANNOT MOVE MORE THAN ONE CELL
 =  13.26    (WHEN MIN. R.F.=1)  AT K=  17, I=   1, J=  90

 MAXIMUM STEPSIZE WHICH MEETS STABILITY CRITERION OF THE ADVECTION TERM
 (FOR PURE FINITE-DIFFERENCE OPTION, MIXELM=0) 
 =  8.018    (WHEN MIN. R.F.=1)  AT K=  16, I=   1, J=  90


 TOTAL NUMBER OF POINT SOURCES/SINKS PRESENT IN THE FLOW MODEL =    30

 MAXIMUM STEPSIZE WHICH MEETS STABILITY CRITERION OF THE SINK & SOURCE TERM
 =  12.21    (WHEN MIN. R.F.=1)  AT K=  17, I=   1, J=  91

 MAXIMUM STEPSIZE WHICH MEETS STABILITY CRITERION OF THE DISPERSION TERM
 =  4.383    (WHEN MIN. R.F.=1)  AT K=  17, I=   1, J=  90
     1 CALLS TO GCG PACKAGE FOR TRANSPORT TIME STEP 898 IN FLOW TIME STEP   1 STRESS PERIOD   1
     9 TOTAL ITERATIONS
     1 CALLS TO GCG PACKAGE FOR TRANSPORT TIME STEP 898 IN FLOW TIME STEP   1 STRESS PERIOD   1
     8 TOTAL ITERATIONS
 
 SOLVING FOR HEAD 


     2 CALLS TO PCG ROUTINE FOR TIME STEP   1 IN STRESS PERIOD    1
     9 TOTAL ITERATIONS

 MAXIMUM HEAD CHANGE FOR EACH ITERATION (1 INDICATES THE FIRST INNER ITERATION):

    HEAD CHANGE    HEAD CHANGE    HEAD CHANGE    HEAD CHANGE    HEAD CHANGE 
   LAYER,ROW,COL  LAYER,ROW,COL  LAYER,ROW,COL  LAYER,ROW,COL  LAYER,ROW,COL
 ---------------------------------------------------------------------------
  1  0.1356E-01  0 -0.3880E-02  0 -0.3066E-02  0 -0.9707E-02  0  0.9193E-02
   ( 15,  1, 86)  ( 17,  1, 89)  (  7,  1, 12)  ( 11,  1, 56)  ( 11,  1, 56)
  0  0.2985E-02  0 -0.1124E-02  0 -0.7994E-03  1  0.6436E-03
   ( 11,  1, 35)  ( 11,  1, 35)  ( 11,  1, 70)  ( 11,  1, 70)

 MAXIMUM RESIDUAL FOR EACH ITERATION (1 INDICATES THE FIRST INNER ITERATION):

    RESIDUAL       RESIDUAL       RESIDUAL       RESIDUAL       RESIDUAL    
   LAYER,ROW,COL  LAYER,ROW,COL  LAYER,ROW,COL  LAYER,ROW,COL  LAYER,ROW,COL
 ---------------------------------------------------------------------------
  1  0.1361E+06  0 -0.9650E+05  0 -0.9549E+05  0 -0.4041E+05  0  -5577.    
   ( 21,  1, 89)  ( 19,  1, 89)  ( 19,  1, 89)  ( 19,  1, 89)  ( 17,  1, 87)
  0   2762.      0   2606.      0   1323.      1   1183.    
   ( 22,  1, 87)  ( 22,  1, 87)  ( 22,  1, 87)  ( 22,  1, 87)


 FLOW MODEL IS TRANSIENT
 FLOW MODEL CONTAINS CONSTANT-HEAD CELLS


 MAXIMUM STEPSIZE DURING WHICH ANY PARTICLE CANNOT MOVE MORE THAN ONE CELL
 =  12.90    (WHEN MIN. R.F.=1)  AT K=  17, I=   1, J=  90

 MAXIMUM STEPSIZE WHICH MEETS STABILITY CRITERION OF THE ADVECTION TERM
 (FOR PURE FINITE-DIFFERENCE OPTION, MIXELM=0) 
 =  8.054    (WHEN MIN. R.F.=1)  AT K=  16, I=   1, J=  90


 TOTAL NUMBER OF POINT SOURCES/SINKS PRESENT IN THE FLOW MODEL =    30

 MAXIMUM STEPSIZE WHICH MEETS STABILITY CRITERION OF THE SINK & SOURCE TERM
 =  12.27    (WHEN MIN. R.F.=1)  AT K=  17, I=   1, J=  91

 MAXIMUM STEPSIZE WHICH MEETS STABILITY CRITERION OF THE DISPERSION TERM
 =  4.046    (WHEN MIN. R.F.=1)  AT K=  17, I=   1, J=  90
     1 CALLS TO GCG PACKAGE FOR TRANSPORT TIME STEP 899 IN FLOW TIME STEP   1 STRESS PERIOD   1
     8 TOTAL ITERATIONS
     1 CALLS TO GCG PACKAGE FOR TRANSPORT TIME STEP 899 IN FLOW TIME STEP   1 STRESS PERIOD   1
     8 TOTAL ITERATIONS
 
 SOLVING FOR HEAD 


     2 CALLS TO PCG ROUTINE FOR TIME STEP   1 IN STRESS PERIOD    1
     8 TOTAL ITERATIONS

 MAXIMUM HEAD CHANGE FOR EACH ITERATION (1 INDICATES THE FIRST INNER ITERATION):

    HEAD CHANGE    HEAD CHANGE    HEAD CHANGE    HEAD CHANGE    HEAD CHANGE 
   LAYER,ROW,COL  LAYER,ROW,COL  LAYER,ROW,COL  LAYER,ROW,COL  LAYER,ROW,COL
 ---------------------------------------------------------------------------
  1 -0.1371E-01  0  0.4081E-02  0  0.4205E-02  0 -0.9199E-02  0 -0.9598E-02
   ( 15,  1, 86)  ( 17,  1, 89)  (  8,  1, 12)  ( 11,  1, 67)  ( 11,  1, 54)
  0  0.1487E-02  0  0.6842E-03  1  0.4828E-03
   ( 11,  1, 51)  ( 11,  1, 57)  ( 11,  1, 36)

 MAXIMUM RESIDUAL FOR EACH ITERATION (1 INDICATES THE FIRST INNER ITERATION):

    RESIDUAL       RESIDUAL       RESIDUAL       RESIDUAL       RESIDUAL    
   LAYER,ROW,COL  LAYER,ROW,COL  LAYER,ROW,COL  LAYER,ROW,COL  LAYER,ROW,COL
 ---------------------------------------------------------------------------
  1 -0.1369E+06  0  0.9709E+05  0  0.9633E+05  0  0.2286E+05  0   5242.    
   ( 21,  1, 89)  ( 19,  1, 89)  ( 19,  1, 89)  ( 19,  1, 89)  ( 17,  1, 87)
  0  -2863.      0  -2538.      1  -2122.    
   ( 22,  1, 87)  ( 22,  1, 87)  ( 22,  1, 87)


 FLOW MODEL IS TRANSIENT
 FLOW MODEL CONTAINS CONSTANT-HEAD CELLS


 MAXIMUM STEPSIZE DURING WHICH ANY PARTICLE CANNOT MOVE MORE THAN ONE CELL
 =  13.23    (WHEN MIN. R.F.=1)  AT K=  17, I=   1, J=  90

 MAXIMUM STEPSIZE WHICH MEETS STABILITY CRITERION OF THE ADVECTION TERM
 (FOR PURE FINITE-DIFFERENCE OPTION, MIXELM=0) 
 =  8.007    (WHEN MIN. R.F.=1)  AT K=  16, I=   1, J=  90


 TOTAL NUMBER OF POINT SOURCES/SINKS PRESENT IN THE FLOW MODEL =    30

 MAXIMUM STEPSIZE WHICH MEETS STABILITY CRITERION OF THE SINK & SOURCE TERM
 =  12.18    (WHEN MIN. R.F.=1)  AT K=  17, I=   1, J=  91

 MAXIMUM STEPSIZE WHICH MEETS STABILITY CRITERION OF THE DISPERSION TERM
 =  4.373    (WHEN MIN. R.F.=1)  AT K=  17, I=   1, J=  90
     1 CALLS TO GCG PACKAGE FOR TRANSPORT TIME STEP 900 IN FLOW TIME STEP   1 STRESS PERIOD   1
    10 TOTAL ITERATIONS
  MAXIMUM CONCENTRATION CHANGES FOR EACH ITERATION:
  MAX. CHANGE LAYER,ROW,COL MAX. CHANGE LAYER,ROW,COL MAX. CHANGE LAYER,ROW,COL MAX. CHANGE LAYER,ROW,COL MAX. CHANGE LAYER,ROW,COL
 ------------------------------------------------------------------------------------------------------------------------------------
   0.4875E-01 ( 20,  1, 87)  0.3351E-02 ( 19,  1, 87)  0.2192E-02 ( 18,  1, 87)  0.2175E-03 ( 16,  1, 88)  0.1468E-03 ( 17,  1, 89)
   0.2846E-04 ( 16,  1, 90)  0.1626E-05 ( 21,  1, 78)  0.2353E-05 ( 21,  1, 78)  0.1220E-05 ( 16,  1, 89)  0.1124E-06 ( 17,  1, 89)
     1 CALLS TO GCG PACKAGE FOR TRANSPORT TIME STEP 900 IN FLOW TIME STEP   1 STRESS PERIOD   1
     8 TOTAL ITERATIONS
  MAXIMUM CONCENTRATION CHANGES FOR EACH ITERATION:
  MAX. CHANGE LAYER,ROW,COL MAX. CHANGE LAYER,ROW,COL MAX. CHANGE LAYER,ROW,COL MAX. CHANGE LAYER,ROW,COL MAX. CHANGE LAYER,ROW,COL
 ------------------------------------------------------------------------------------------------------------------------------------
   0.4935E-01 ( 20,  1, 87)  0.3259E-02 ( 19,  1, 87)  0.2195E-02 ( 18,  1, 87)  0.2115E-03 ( 16,  1, 88)  0.1303E-03 ( 17,  1, 89)
   0.3061E-04 ( 16,  1, 90)  0.4319E-05 ( 17,  1, 90)  0.5323E-06 ( 16,  1, 89)
 UBUDSV SAVING "         STORAGE" ON UNIT 50 AT TIME STEP  1, STRESS PERIOD    1
 UBUDSV SAVING "   CONSTANT HEAD" ON UNIT 50 AT TIME STEP  1, STRESS PERIOD    1
 UBUDSV SAVING "FLOW RIGHT FACE " ON UNIT 50 AT TIME STEP  1, STRESS PERIOD    1
 UBUDSV SAVING "FLOW LOWER FACE " ON UNIT 50 AT TIME STEP  1, STRESS PERIOD    1
 UBUDSV SAVING "        RECHARGE" ON UNIT 51 AT TIME STEP  1, STRESS PERIOD    1
 UBUDSV SAVING "            DCDT" ON UNIT 50 AT TIME STEP  1, STRESS PERIOD    1



 >>>>>>>>>>>>>>>>>>>>>>>>>>>>>>>>>>>>>>>>>>>>>>>>>>>>>>>FOR COMPONENT NO. 01<<<<<<<<<<<<<<<<<<<<<<<<<<<<<<<<<<<<<<<<<<<<<<<<<<<<<<<


                                            -------------------------------------------
                                                      TRANSPORT STEP NO.  900
                                            -------------------------------------------

 TOTAL ELAPSED TIME SINCE BEGINNING OF SIMULATION =   45000.00    D   
 .....................................................................

                     CUMMULATIVE MASS BUDGETS AT END OF TRANSPORT STEP  900, TIME STEP    1, STRESS PERIOD    1
                     ------------------------------------------------------------------------------------------

                                                             IN                           OUT
                                                      ----------------             ----------------
                               CONSTANT CONCENTRATION:    0.000000                    0.000000    
                                        CONSTANT HEAD:   0.1780347E+10              -0.1780133E+10
                                                WELLS:    0.000000                    0.000000    
                                             RECHARGE:    0.000000                    0.000000    
                               1ST/0TH ORDER REACTION:    0.000000                    0.000000    
                                MASS STORAGE (SOLUTE):   0.2488779E+09              -0.2490922E+09
                            ---------------------------------------------------------------------------
                                              [TOTAL]:   0.2029227E+10 KG           -0.2029227E+10 KG  

                                                          NET (IN - OUT):   -433.1343    
                                                   DISCREPANCY (PERCENT):  -0.2134479E-04



 >>>>>>>>>>>>>>>>>>>>>>>>>>>>>>>>>>>>>>>>>>>>>>>>>>>>>>>FOR COMPONENT NO. 02<<<<<<<<<<<<<<<<<<<<<<<<<<<<<<<<<<<<<<<<<<<<<<<<<<<<<<<


                                            -------------------------------------------
                                                      TRANSPORT STEP NO.  900
                                            -------------------------------------------

 TOTAL ELAPSED TIME SINCE BEGINNING OF SIMULATION =   45000.00    D   
 .....................................................................

                     CUMMULATIVE MASS BUDGETS AT END OF TRANSPORT STEP  900, TIME STEP    1, STRESS PERIOD    1
                     ------------------------------------------------------------------------------------------

                                                             IN                           OUT
                                                      ----------------             ----------------
                               CONSTANT CONCENTRATION:    0.000000                    0.000000    
                                        CONSTANT HEAD:    0.000000                  -0.3954939E+12
                                                WELLS:    0.000000                    0.000000    
                                             RECHARGE:    0.000000                    0.000000    
                               1ST/0TH ORDER REACTION:   0.7447500E+12                0.000000    
                                MASS STORAGE (SOLUTE):   0.1550193E+12              -0.5042756E+12
                            ---------------------------------------------------------------------------
                                              [TOTAL]:   0.8997714E+12 KG           -0.8997715E+12 KG  

                                                          NET (IN - OUT):   -127523.8    
                                                   DISCREPANCY (PERCENT):  -0.1417291E-04

 HEAD WILL BE SAVED ON UNIT   30 AT END OF TIME STEP   1, STRESS PERIOD    1
1
  MASS BUDGET FOR ENTIRE MODEL AT END OF TIME STEP  1 IN STRESS PERIOD   1
  ------------------------------------------------------------------------------

     CUMULATIVE MASS      M       RATES FOR THIS TIME STEP      M/T
     ------------------                 ------------------------

           IN:                                      IN:
           ---                                      ---
             STORAGE =      157636.2798               STORAGE =           5.1175
       CONSTANT HEAD = 52210926167.1725         CONSTANT HEAD =     1161892.7674
               WELLS =           0.0000                 WELLS =           0.0000
            RECHARGE = 21924000000.0000              RECHARGE =      487200.0000
                DCDT =   172738462.1341                  DCDT =        3878.9765

            TOTAL IN = 74307822265.5864              TOTAL IN =     1652976.8614

          OUT:                                     OUT:
          ----                                     ----
             STORAGE =      153554.6775               STORAGE =           2.2549
       CONSTANT HEAD = 74134766275.0429         CONSTANT HEAD =     1649077.7020
               WELLS =           0.0000                 WELLS =           0.0000
            RECHARGE =           0.0000              RECHARGE =           0.0000
                DCDT =   172879116.1248                  DCDT =        3836.2482

           TOTAL OUT = 74307798945.8451             TOTAL OUT =     1652916.2051

            IN - OUT =       23319.7413              IN - OUT =          60.6563

 PERCENT DISCREPANCY =           0.00     PERCENT DISCREPANCY =           0.00



0


          TIME SUMMARY AT END OF TRANSPORT STEP  900 IN TIME STEP    1 IN STRESS PERIOD   1
                    SECONDS     MINUTES      HOURS       DAYS        YEARS
                    -----------------------------------------------------------
  TRANS STEP LENGTH 4.32000E+06  72000.      1200.0      50.000     0.13689    
   TIME STEP LENGTH 3.88800E+09 6.48000E+07 1.08000E+06  45000.      123.20    
 STRESS PERIOD TIME 3.88800E+09 6.48000E+07 1.08000E+06  45000.      123.20    
         TOTAL TIME 3.88800E+09 6.48000E+07 1.08000E+06  45000.      123.20    
1

 DATA AT HEAD LOCATIONS

        OBSERVATION     OBSER-     SIMUL.                          WEIGHTED
   OBS#    NAME         VATION     EQUIV.    RESIDUAL  WEIGHT**.5  RESIDUAL
                          *          *
      1 p1_head         1.00      0.769      0.231       1.00      0.231    
      2 p2_head         1.00       2.16      -1.16       1.00      -1.16    
      3 p3_head         1.00       2.12      -1.12       1.00      -1.12    
      4 p4_head         1.00     -0.692E-03   1.00       1.00       1.00    
      5 p5_head         1.00       2.43      -1.43       1.00      -1.43    
      6 p6_head         1.00       1.98     -0.978       1.00     -0.978    
      7 p7_head         1.00       3.16      -2.16       1.00      -2.16    

 * THE OBSERVATION (AND CORRESPONDING SIMULATED EQUIVALENT) IS HEAD OR TEMPORAL
   CHANGE IN HEAD, AS SPECIFIED IN THE "HOB" INPUT FILE.  NEGATIVE TEMPORAL
   CHANGES INDICATE DRAWDOWN.

 STATISTICS FOR HEAD RESIDUALS :
 MAXIMUM WEIGHTED RESIDUAL  :  1.00     OBS#      4
 MINIMUM WEIGHTED RESIDUAL  : -2.16     OBS#      7
 AVERAGE WEIGHTED RESIDUAL  :-0.803    
 # RESIDUALS >= 0. :      2
 # RESIDUALS < 0.  :      5
 NUMBER OF RUNS  :    4  IN    7 OBSERVATIONS

 SUM OF SQUARED WEIGHTED RESIDUALS (HEADS ONLY)   11.339    

 SUM OF SQUARED WEIGHTED RESIDUALS (ALL DEPENDENT VARIABLES)   11.339    

 STATISTICS FOR ALL RESIDUALS :
 AVERAGE WEIGHTED RESIDUAL  :-0.803E+00
 # RESIDUALS >= 0. :      2
 # RESIDUALS < 0.  :      5
 NUMBER OF RUNS  :    4  IN    7 OBSERVATIONS

 THE NUMBER OF RUNS EQUALS THE EXPECTED NUMBER OF RUNS

 ORDERED DEPENDENT-VARIABLE WEIGHTED RESIDUALS
 NUMBER OF RESIDUALS INCLUDED:         7
     -2.16      -1.43      -1.16      -1.12     -0.978      0.231       1.00    

 CORRELATION BETWEEN ORDERED WEIGHTED RESIDUALS AND NORMAL ORDER STATISTICS
 FOR OBSERVATIONS =    0.912    

 --------------------------------------------------------------------------
 COMMENTS ON THE INTERPRETATION OF THE CORRELATION BETWEEN
 WEIGHTED RESIDUALS AND NORMAL ORDER STATISTICS:

 Generally, IF the reported CORRELATION is LESS than the critical value,
 at the selected significance level (usually 5 or 10%), the hypothesis
 that the weighted residuals are INDEPENDENT AND NORMALLY DISTRIBUTED
 would be REJECTED.  HOWEVER, in this case, conditions are outside of
 the range of published critical values as discussed below.

 The sum of the number of observations and prior information items is     7
 which is less than 35, the minimum value for which critical values are
 published.  Therefore, the critical values for the 5 and 10% significance
 levels are less than 0.943 and 0.952, respectively.

 CORRELATIONS GREATER than these critical values indicate that, probably, the 
 weighted residuals ARE INDEPENDENT AND NORMALLY DISTRIBUTED.

 Correlations LESS than these critical values MAY BE ACCEPTABLE, and
 rejection of the hypothesis is not necessarily warranted.

 The Kolmogorov-Smirnov test can be used to further evaluate the residuals.
 --------------------------------------------------------------------------

