                                  SEAWAT Version 4
      U.S. GEOLOGICAL SURVEY MODULAR FINITE-DIFFERENCE GROUND-WATER FLOW MODEL
                           VERSION 4.00.03 09/21/2009


 This model run produced both GLOBAL and LIST files.  This is the LIST file.

  ----- 
 | M T | Conversion from Groundwater Vistas                                              
 | 3 D | MT3D Model                                                                      
  ----- 
 THE TRANSPORT MODEL CONSISTS OF    23 LAYER(S)    1 ROW(S)  100 COLUMN(S)
 NUMBER OF STRESS PERIOD(S) FOR TRANSPORT SIMULATION =    1
 NUMBER OF ALL COMPONENTS INCLUDED IN SIMULATION =    1
 NUMBER OF MOBILE COMPONENTS INCLUDED IN SIMULATION =    1
 UNIT FOR TIME IS D   ;  UNIT FOR LENGTH IS M   ;  UNIT FOR MASS IS KG  
 OPTIONAL PACKAGES INCLUDED IN CURRENT SIMULATION:
  o ADV   ON UNIT282
  o DSP   ON UNIT283
  o SSM   ON UNIT284
  o GCG   ON UNIT286


 VDF -- VARIABLE DENSITY FLOW, VERSION 1, 2/13/2004
         INPUT READ FROM UNIT280

 COUPLING BETWEEN FLOW AND TRANSPORT IS EXPLICIT
 VARIABLE-DENSITY WATER-TABLE CORRECTIONS NOT ADDED
 MT3DMS SPECIES USED IN EQUATION OF STATE FOR FLUID DENSITY:          1
 AN UPSTREAM-WEIGHTED ALGORITHM IS USED TO CALCULATE FLUID DENSITY TERMS THAT CONSERVE MASS
  1000.     REFERENCE DENSITY
 0.7000     DENSITY SLOPE FOR EQUATION OF STATE
 DENSITY EQUATION OF STATE
 RHO =     1000.00    
  + 0.7000     * ( CONC(   1) -  0.000     )



 FIRSTDT SPECIFIED BY USER IN THE VDF FILE IS:   0.1000000E-02
 BTN5 -- BASIC TRANSPORT PACKAGE, VERSION 5, OCTOBER 2006, INPUT READ FROM UNIT281
      34802 ELEMENTS OF THE  X ARRAY USED BY THE BTN PACKAGE
       2323 ELEMENTS OF THE IX ARRAY USED BY THE BTN PACKAGE

 FLOW MODEL IS TRANSIENT

 ADV5 -- ADVECTION PACKAGE, VERSION 5, FEBRUARY 2005, INPUT READ FROM UNIT282
 ADVECTION IS SOLVED WITH THE ULTIMATE SCHEME
 COURANT NUMBER ALLOWED IN SOLVING THE ADVECTION TERM = 0.500    
          0 ELEMENTS OF THE  X ARRAY USED BY THE ADV PACKAGE
          0 ELEMENTS OF THE IX ARRAY USED BY THE ADV PACKAGE

 DSP5 -- DISPERSION PACKAGE, VERSION 5, OCTOBER 2006, INPUT READ FROM UNIT283
      25346 ELEMENTS OF THE  X ARRAY USED BY THE DSP PACKAGE
          0 ELEMENTS OF THE IX ARRAY USED BY THE DSP PACKAGE

 SSM5 -- SINK & SOURCE MIXING PACKAGE, VERSION 5, OCTOBER 2006, INPUT READ FROM UNIT284
 HEADER LINE OF THE SSM PACKAGE INPUT FILE:
  F F T F F F                                                                                                                                                                                            
 MAJOR STRESS COMPONENTS PRESENT IN THE FLOW MODEL:
  o RECHARGE
 MAXIMUM NUMBER OF POINT SINKS/SOURCES =      30
        590 ELEMENTS OF THE  X ARRAY USED BY THE SSM PACKAGE
        100 ELEMENTS OF THE IX ARRAY BY THE SSM PACKAGE

 GCG5 -- GENERALIZED CONJUGATE GRADIENT SOLVER PACKAGE, VERSION 5, FEBRUARY 2005 INPUT READ FROM UNIT286
 MAXIMUM OF    1 OUTER ITERATIONS
        AND   50 INNER ITERATIONS ALLOWED FOR CLOSURE
 THE PRECONDITIONING TYPE SELECTED IS SSOR.
 DISPERSION CROSS TERMS LUMPED INTO RIGHT-HAND-SIDE
      34550 ELEMENTS OF THE  X ARRAY USED BY THE GCG PACKAGE
        150 ELEMENTS OF THE IX ARRAY USED BY THE GCG PACKAGE

 
 # MODFLOW2000 Basic Package                                                     
 #MODFLOW Data Set Created by Groundwater Vistas                                 
 #
   23 LAYERS         1 ROWS       100 COLUMNS
    1 STRESS PERIOD(S) IN SIMULATION

 BAS6 -- BASIC PACKAGE, VERSION 6, 1/11/2000 INPUT READ FROM UNIT    1
        115 ELEMENTS IN IR ARRAY ARE USED BY BAS

 RCH6 -- RECHARGE PACKAGE, VERSION 6, 1/11/2000 INPUT READ FROM UNIT   18
 # MODFLOW2000 Recharge Package
 No named parameters
 OPTION 3 -- RECHARGE TO HIGHEST ACTIVE NODE IN EACH VERTICAL COLUMN
 CELL-BY-CELL FLOWS WILL BE SAVED ON UNIT   51
        100 ELEMENTS IN RX ARRAY ARE USED BY RCH
        100 ELEMENTS IN IR ARRAY ARE USED BY RCH

        100  ELEMENTS OF RX ARRAY USED OUT OF        100
          0  ELEMENTS OF RZ ARRAY USED OUT OF          1
        215  ELEMENTS OF IR ARRAY USED OUT OF        215
1
 # MODFLOW2000 Basic Package                                                     
 #MODFLOW Data Set Created by Groundwater Vistas                                 



                     BOUNDARY ARRAY FOR LAYER   1
 READING ON UNIT    1 WITH FORMAT: (25I3)              



                     BOUNDARY ARRAY FOR LAYER   2
 READING ON UNIT    1 WITH FORMAT: (25I3)              



                     BOUNDARY ARRAY FOR LAYER   3
 READING ON UNIT    1 WITH FORMAT: (25I3)              



                     BOUNDARY ARRAY FOR LAYER   4
 READING ON UNIT    1 WITH FORMAT: (25I3)              



                     BOUNDARY ARRAY FOR LAYER   5
 READING ON UNIT    1 WITH FORMAT: (25I3)              



                     BOUNDARY ARRAY FOR LAYER   6
 READING ON UNIT    1 WITH FORMAT: (25I3)              



                     BOUNDARY ARRAY FOR LAYER   7
 READING ON UNIT    1 WITH FORMAT: (25I3)              



                     BOUNDARY ARRAY FOR LAYER   8
 READING ON UNIT    1 WITH FORMAT: (25I3)              



                     BOUNDARY ARRAY FOR LAYER   9
 READING ON UNIT    1 WITH FORMAT: (25I3)              



                     BOUNDARY ARRAY FOR LAYER  10
 READING ON UNIT    1 WITH FORMAT: (25I3)              



                     BOUNDARY ARRAY FOR LAYER  11
 READING ON UNIT    1 WITH FORMAT: (25I3)              



                     BOUNDARY ARRAY FOR LAYER  12
 READING ON UNIT    1 WITH FORMAT: (25I3)              



                     BOUNDARY ARRAY FOR LAYER  13
 READING ON UNIT    1 WITH FORMAT: (25I3)              



                     BOUNDARY ARRAY FOR LAYER  14
 READING ON UNIT    1 WITH FORMAT: (25I3)              



                     BOUNDARY ARRAY FOR LAYER  15
 READING ON UNIT    1 WITH FORMAT: (25I3)              



                     BOUNDARY ARRAY FOR LAYER  16
 READING ON UNIT    1 WITH FORMAT: (25I3)              



                     BOUNDARY ARRAY FOR LAYER  17
 READING ON UNIT    1 WITH FORMAT: (25I3)              



                     BOUNDARY ARRAY FOR LAYER  18
 READING ON UNIT    1 WITH FORMAT: (25I3)              



                     BOUNDARY ARRAY FOR LAYER  19
 READING ON UNIT    1 WITH FORMAT: (25I3)              



                     BOUNDARY ARRAY FOR LAYER  20
 READING ON UNIT    1 WITH FORMAT: (25I3)              



                     BOUNDARY ARRAY FOR LAYER  21
 READING ON UNIT    1 WITH FORMAT: (25I3)              



                     BOUNDARY ARRAY FOR LAYER  22
 READING ON UNIT    1 WITH FORMAT: (25I3)              



                     BOUNDARY ARRAY FOR LAYER  23
 READING ON UNIT    1 WITH FORMAT: (25I3)              

 AQUIFER HEAD WILL BE SET TO  999.00     AT ALL NO-FLOW NODES (IBOUND=0).

             INITIAL HEAD =   0.00000     FOR LAYER   1

             INITIAL HEAD =   0.00000     FOR LAYER   2

             INITIAL HEAD =   0.00000     FOR LAYER   3

             INITIAL HEAD =   0.00000     FOR LAYER   4

             INITIAL HEAD =   0.00000     FOR LAYER   5

             INITIAL HEAD =   0.00000     FOR LAYER   6

             INITIAL HEAD =   0.00000     FOR LAYER   7

             INITIAL HEAD =   0.00000     FOR LAYER   8

             INITIAL HEAD =   0.00000     FOR LAYER   9

             INITIAL HEAD =   0.00000     FOR LAYER  10

             INITIAL HEAD =   0.00000     FOR LAYER  11

             INITIAL HEAD =   0.00000     FOR LAYER  12

             INITIAL HEAD =   0.00000     FOR LAYER  13

             INITIAL HEAD =   0.00000     FOR LAYER  14

             INITIAL HEAD =   0.00000     FOR LAYER  15

             INITIAL HEAD =   0.00000     FOR LAYER  16

             INITIAL HEAD =   0.00000     FOR LAYER  17

             INITIAL HEAD =   0.00000     FOR LAYER  18

             INITIAL HEAD =   0.00000     FOR LAYER  19

             INITIAL HEAD =   0.00000     FOR LAYER  20

             INITIAL HEAD =   0.00000     FOR LAYER  21

             INITIAL HEAD =   0.00000     FOR LAYER  22

             INITIAL HEAD =   0.00000     FOR LAYER  23

 OUTPUT CONTROL IS SPECIFIED EVERY TIME STEP
 HEAD PRINT FORMAT CODE IS   0    DRAWDOWN PRINT FORMAT CODE IS   0
 HEADS WILL BE SAVED ON UNIT   30    DRAWDOWNS WILL BE SAVED ON UNIT    0
 LAYER NUMBER  AQUIFER TYPE
 ------------  ------------
       1            0
       2            0
       3            0
       4            0
       5            0
       6            0
       7            0
       8            0
       9            0
      10            0
      11            0
      12            0
      13            0
      14            0
      15            0
      16            0
      17            0
      18            0
      19            0
      20            0
      21            0
      22            0
      23            0
                                       WIDTH ALONG ROWS (DELR)  =   100.0000    
                                       WIDTH ALONG COLS (DELC)  =   100.0000    
                                       TOP ELEV. OF 1ST LAYER   =   2.500000    
                                       CELL THICKNESS (DZ)      =   5.000000     FOR LAYER  1
                                       CELL THICKNESS (DZ)      =   5.000000     FOR LAYER  2
                                       CELL THICKNESS (DZ)      =   5.000000     FOR LAYER  3
                                       CELL THICKNESS (DZ)      =   5.000000     FOR LAYER  4
                                       CELL THICKNESS (DZ)      =   5.000000     FOR LAYER  5
                                       CELL THICKNESS (DZ)      =   5.000000     FOR LAYER  6
                                       CELL THICKNESS (DZ)      =   5.000000     FOR LAYER  7
                                       CELL THICKNESS (DZ)      =   5.000000     FOR LAYER  8
                                       CELL THICKNESS (DZ)      =   5.000000     FOR LAYER  9
                                       CELL THICKNESS (DZ)      =   5.000000     FOR LAYER 10
                                       CELL THICKNESS (DZ)      =   5.000000     FOR LAYER 11
                                       CELL THICKNESS (DZ)      =   5.000000     FOR LAYER 12
                                       CELL THICKNESS (DZ)      =   5.000000     FOR LAYER 13
                                       CELL THICKNESS (DZ)      =   5.000000     FOR LAYER 14
                                       CELL THICKNESS (DZ)      =   5.000000     FOR LAYER 15
                                       CELL THICKNESS (DZ)      =   5.000000     FOR LAYER 16
                                       CELL THICKNESS (DZ)      =   5.000000     FOR LAYER 17
                                       CELL THICKNESS (DZ)      =   5.000000     FOR LAYER 18
                                       CELL THICKNESS (DZ)      =   5.000000     FOR LAYER 19
                                       CELL THICKNESS (DZ)      =   5.000000     FOR LAYER 20
                                       CELL THICKNESS (DZ)      =   5.000000     FOR LAYER 21
                                       CELL THICKNESS (DZ)      =   5.000000     FOR LAYER 22
                                       CELL THICKNESS (DZ)      =   5.000000     FOR LAYER 23
                                       POROSITY                 =  0.2000000     FOR LAYER  1
                                       POROSITY                 =  0.2000000     FOR LAYER  2
                                       POROSITY                 =  0.2000000     FOR LAYER  3
                                       POROSITY                 =  0.2000000     FOR LAYER  4
                                       POROSITY                 =  0.2000000     FOR LAYER  5
                                       POROSITY                 =  0.2000000     FOR LAYER  6
                                       POROSITY                 =  0.2000000     FOR LAYER  7
                                       POROSITY                 =  0.2000000     FOR LAYER  8
                                       POROSITY                 =  0.2000000     FOR LAYER  9
                                       POROSITY                 =  0.2000000     FOR LAYER 10
                                       POROSITY                 =  0.2000000     FOR LAYER 11
                                       POROSITY                 =  0.2000000     FOR LAYER 12
                                       POROSITY                 =  0.2000000     FOR LAYER 13
                                       POROSITY                 =  0.2000000     FOR LAYER 14
                                       POROSITY                 =  0.2000000     FOR LAYER 15
                                       POROSITY                 =  0.2000000     FOR LAYER 16
                                       POROSITY                 =  0.2000000     FOR LAYER 17
                                       POROSITY                 =  0.2000000     FOR LAYER 18
                                       POROSITY                 =  0.2000000     FOR LAYER 19
                                       POROSITY                 =  0.2000000     FOR LAYER 20
                                       POROSITY                 =  0.2000000     FOR LAYER 21
                                       POROSITY                 =  0.2000000     FOR LAYER 22
                                       POROSITY                 =  0.2000000     FOR LAYER 23

                     CONCN. BOUNDARY ARRAY    FOR LAYER  1 READ ON UNIT281 USING FORMAT: "(25I3)              "
                     ------------------------------------------------------------------------------------------

                1           2           3           4           5           6           7           8           9          10
               11          12          13          14          15          16          17          18          19          20
               21          22          23          24          25          26          27          28          29          30
               31          32          33          34          35          36          37          38          39          40
               41          42          43          44          45          46          47          48          49          50
               51          52          53          54          55          56          57          58          59          60
               61          62          63          64          65          66          67          68          69          70
               71          72          73          74          75          76          77          78          79          80
               81          82          83          84          85          86          87          88          89          90
               91          92          93          94          95          96          97          98          99         100
 ............................................................................................................................
   1            1           1           1           1           1           1           1           1           1           1
                1           1           1           1           1           1           1           1           1           1
                1           1           1           1           1           1           1           1           1           1
                1           1           1           1           1           1           1           1           1           1
                1           1           1           1           1           1           1           1           1           1
                1           1           1           1           1           1           1           1           1           1
                1           1           1           1           1           1           1           1           1           1
                1           0           0           0           0           0           0           0           0           0
                0           0           0           0           0           0           0           0           0           0
                0           0           0           0           0           0           0           0           0           0

                     CONCN. BOUNDARY ARRAY    FOR LAYER  2 READ ON UNIT281 USING FORMAT: "(25I3)              "
                     ------------------------------------------------------------------------------------------

                1           2           3           4           5           6           7           8           9          10
               11          12          13          14          15          16          17          18          19          20
               21          22          23          24          25          26          27          28          29          30
               31          32          33          34          35          36          37          38          39          40
               41          42          43          44          45          46          47          48          49          50
               51          52          53          54          55          56          57          58          59          60
               61          62          63          64          65          66          67          68          69          70
               71          72          73          74          75          76          77          78          79          80
               81          82          83          84          85          86          87          88          89          90
               91          92          93          94          95          96          97          98          99         100
 ............................................................................................................................
   1            1           1           1           1           1           1           1           1           1           1
                1           1           1           1           1           1           1           1           1           1
                1           1           1           1           1           1           1           1           1           1
                1           1           1           1           1           1           1           1           1           1
                1           1           1           1           1           1           1           1           1           1
                1           1           1           1           1           1           1           1           1           1
                1           1           1           1           1           1           1           1           1           1
                1           1           0           0           0           0           0           0           0           0
                0           0           0           0           0           0           0           0           0           0
                0           0           0           0           0           0           0           0           0           0

                     CONCN. BOUNDARY ARRAY    FOR LAYER  3 READ ON UNIT281 USING FORMAT: "(25I3)              "
                     ------------------------------------------------------------------------------------------

                1           2           3           4           5           6           7           8           9          10
               11          12          13          14          15          16          17          18          19          20
               21          22          23          24          25          26          27          28          29          30
               31          32          33          34          35          36          37          38          39          40
               41          42          43          44          45          46          47          48          49          50
               51          52          53          54          55          56          57          58          59          60
               61          62          63          64          65          66          67          68          69          70
               71          72          73          74          75          76          77          78          79          80
               81          82          83          84          85          86          87          88          89          90
               91          92          93          94          95          96          97          98          99         100
 ............................................................................................................................
   1            1           1           1           1           1           1           1           1           1           1
                1           1           1           1           1           1           1           1           1           1
                1           1           1           1           1           1           1           1           1           1
                1           1           1           1           1           1           1           1           1           1
                1           1           1           1           1           1           1           1           1           1
                1           1           1           1           1           1           1           1           1           1
                1           1           1           1           1           1           1           1           1           1
                1           1           1           1           0           0           0           0           0           0
                0           0           0           0           0           0           0           0           0           0
                0           0           0           0           0           0           0           0           0           0

                     CONCN. BOUNDARY ARRAY    FOR LAYER  4 READ ON UNIT281 USING FORMAT: "(25I3)              "
                     ------------------------------------------------------------------------------------------

                1           2           3           4           5           6           7           8           9          10
               11          12          13          14          15          16          17          18          19          20
               21          22          23          24          25          26          27          28          29          30
               31          32          33          34          35          36          37          38          39          40
               41          42          43          44          45          46          47          48          49          50
               51          52          53          54          55          56          57          58          59          60
               61          62          63          64          65          66          67          68          69          70
               71          72          73          74          75          76          77          78          79          80
               81          82          83          84          85          86          87          88          89          90
               91          92          93          94          95          96          97          98          99         100
 ............................................................................................................................
   1            1           1           1           1           1           1           1           1           1           1
                1           1           1           1           1           1           1           1           1           1
                1           1           1           1           1           1           1           1           1           1
                1           1           1           1           1           1           1           1           1           1
                1           1           1           1           1           1           1           1           1           1
                1           1           1           1           1           1           1           1           1           1
                1           1           1           1           1           1           1           1           1           1
                1           1           1           1           1           0           0           0           0           0
                0           0           0           0           0           0           0           0           0           0
                0           0           0           0           0           0           0           0           0           0

                     CONCN. BOUNDARY ARRAY    FOR LAYER  5 READ ON UNIT281 USING FORMAT: "(25I3)              "
                     ------------------------------------------------------------------------------------------

                1           2           3           4           5           6           7           8           9          10
               11          12          13          14          15          16          17          18          19          20
               21          22          23          24          25          26          27          28          29          30
               31          32          33          34          35          36          37          38          39          40
               41          42          43          44          45          46          47          48          49          50
               51          52          53          54          55          56          57          58          59          60
               61          62          63          64          65          66          67          68          69          70
               71          72          73          74          75          76          77          78          79          80
               81          82          83          84          85          86          87          88          89          90
               91          92          93          94          95          96          97          98          99         100
 ............................................................................................................................
   1            1           1           1           1           1           1           1           1           1           1
                1           1           1           1           1           1           1           1           1           1
                1           1           1           1           1           1           1           1           1           1
                1           1           1           1           1           1           1           1           1           1
                1           1           1           1           1           1           1           1           1           1
                1           1           1           1           1           1           1           1           1           1
                1           1           1           1           1           1           1           1           1           1
                1           1           1           1           1           1           0           0           0           0
                0           0           0           0           0           0           0           0           0           0
                0           0           0           0           0           0           0           0           0           0

                     CONCN. BOUNDARY ARRAY    FOR LAYER  6 READ ON UNIT281 USING FORMAT: "(25I3)              "
                     ------------------------------------------------------------------------------------------

                1           2           3           4           5           6           7           8           9          10
               11          12          13          14          15          16          17          18          19          20
               21          22          23          24          25          26          27          28          29          30
               31          32          33          34          35          36          37          38          39          40
               41          42          43          44          45          46          47          48          49          50
               51          52          53          54          55          56          57          58          59          60
               61          62          63          64          65          66          67          68          69          70
               71          72          73          74          75          76          77          78          79          80
               81          82          83          84          85          86          87          88          89          90
               91          92          93          94          95          96          97          98          99         100
 ............................................................................................................................
   1            1           1           1           1           1           1           1           1           1           1
                1           1           1           1           1           1           1           1           1           1
                1           1           1           1           1           1           1           1           1           1
                1           1           1           1           1           1           1           1           1           1
                1           1           1           1           1           1           1           1           1           1
                1           1           1           1           1           1           1           1           1           1
                1           1           1           1           1           1           1           1           1           1
                1           1           1           1           1           1           1           1           0           0
                0           0           0           0           0           0           0           0           0           0
                0           0           0           0           0           0           0           0           0           0

                     CONCN. BOUNDARY ARRAY    FOR LAYER  7 READ ON UNIT281 USING FORMAT: "(25I3)              "
                     ------------------------------------------------------------------------------------------

                1           2           3           4           5           6           7           8           9          10
               11          12          13          14          15          16          17          18          19          20
               21          22          23          24          25          26          27          28          29          30
               31          32          33          34          35          36          37          38          39          40
               41          42          43          44          45          46          47          48          49          50
               51          52          53          54          55          56          57          58          59          60
               61          62          63          64          65          66          67          68          69          70
               71          72          73          74          75          76          77          78          79          80
               81          82          83          84          85          86          87          88          89          90
               91          92          93          94          95          96          97          98          99         100
 ............................................................................................................................
   1            1           1           1           1           1           1           1           1           1           1
                1           1           1           1           1           1           1           1           1           1
                1           1           1           1           1           1           1           1           1           1
                1           1           1           1           1           1           1           1           1           1
                1           1           1           1           1           1           1           1           1           1
                1           1           1           1           1           1           1           1           1           1
                1           1           1           1           1           1           1           1           1           1
                1           1           1           1           1           1           1           1           1           0
                0           0           0           0           0           0           0           0           0           0
                0           0           0           0           0           0           0           0           0           0

                     CONCN. BOUNDARY ARRAY    FOR LAYER  8 READ ON UNIT281 USING FORMAT: "(25I3)              "
                     ------------------------------------------------------------------------------------------

                1           2           3           4           5           6           7           8           9          10
               11          12          13          14          15          16          17          18          19          20
               21          22          23          24          25          26          27          28          29          30
               31          32          33          34          35          36          37          38          39          40
               41          42          43          44          45          46          47          48          49          50
               51          52          53          54          55          56          57          58          59          60
               61          62          63          64          65          66          67          68          69          70
               71          72          73          74          75          76          77          78          79          80
               81          82          83          84          85          86          87          88          89          90
               91          92          93          94          95          96          97          98          99         100
 ............................................................................................................................
   1            1           1           1           1           1           1           1           1           1           1
                1           1           1           1           1           1           1           1           1           1
                1           1           1           1           1           1           1           1           1           1
                1           1           1           1           1           1           1           1           1           1
                1           1           1           1           1           1           1           1           1           1
                1           1           1           1           1           1           1           1           1           1
                1           1           1           1           1           1           1           1           1           1
                1           1           1           1           1           1           1           1           1           1
                0           0           0           0           0           0           0           0           0           0
                0           0           0           0           0           0           0           0           0           0

                     CONCN. BOUNDARY ARRAY    FOR LAYER  9 READ ON UNIT281 USING FORMAT: "(25I3)              "
                     ------------------------------------------------------------------------------------------

                1           2           3           4           5           6           7           8           9          10
               11          12          13          14          15          16          17          18          19          20
               21          22          23          24          25          26          27          28          29          30
               31          32          33          34          35          36          37          38          39          40
               41          42          43          44          45          46          47          48          49          50
               51          52          53          54          55          56          57          58          59          60
               61          62          63          64          65          66          67          68          69          70
               71          72          73          74          75          76          77          78          79          80
               81          82          83          84          85          86          87          88          89          90
               91          92          93          94          95          96          97          98          99         100
 ............................................................................................................................
   1            1           1           1           1           1           1           1           1           1           1
                1           1           1           1           1           1           1           1           1           1
                1           1           1           1           1           1           1           1           1           1
                1           1           1           1           1           1           1           1           1           1
                1           1           1           1           1           1           1           1           1           1
                1           1           1           1           1           1           1           1           1           1
                1           1           1           1           1           1           1           1           1           1
                1           1           1           1           1           1           1           1           1           1
                1           0           0           0           0           0           0           0           0           0
                0           0           0           0           0           0           0           0           0           0

                     CONCN. BOUNDARY ARRAY    FOR LAYER 10 READ ON UNIT281 USING FORMAT: "(25I3)              "
                     ------------------------------------------------------------------------------------------

                1           2           3           4           5           6           7           8           9          10
               11          12          13          14          15          16          17          18          19          20
               21          22          23          24          25          26          27          28          29          30
               31          32          33          34          35          36          37          38          39          40
               41          42          43          44          45          46          47          48          49          50
               51          52          53          54          55          56          57          58          59          60
               61          62          63          64          65          66          67          68          69          70
               71          72          73          74          75          76          77          78          79          80
               81          82          83          84          85          86          87          88          89          90
               91          92          93          94          95          96          97          98          99         100
 ............................................................................................................................
   1            1           1           1           1           1           1           1           1           1           1
                1           1           1           1           1           1           1           1           1           1
                1           1           1           1           1           1           1           1           1           1
                1           1           1           1           1           1           1           1           1           1
                1           1           1           1           1           1           1           1           1           1
                1           1           1           1           1           1           1           1           1           1
                1           1           1           1           1           1           1           1           1           1
                1           1           1           1           1           1           1           1           1           1
                1           1           0           0           0           0           0           0           0           0
                0           0           0           0           0           0           0           0           0           0

                     CONCN. BOUNDARY ARRAY    FOR LAYER 11 READ ON UNIT281 USING FORMAT: "(25I3)              "
                     ------------------------------------------------------------------------------------------

                1           2           3           4           5           6           7           8           9          10
               11          12          13          14          15          16          17          18          19          20
               21          22          23          24          25          26          27          28          29          30
               31          32          33          34          35          36          37          38          39          40
               41          42          43          44          45          46          47          48          49          50
               51          52          53          54          55          56          57          58          59          60
               61          62          63          64          65          66          67          68          69          70
               71          72          73          74          75          76          77          78          79          80
               81          82          83          84          85          86          87          88          89          90
               91          92          93          94          95          96          97          98          99         100
 ............................................................................................................................
   1            1           1           1           1           1           1           1           1           1           1
                1           1           1           1           1           1           1           1           1           1
                1           1           1           1           1           1           1           1           1           1
                1           1           1           1           1           1           1           1           1           1
                1           1           1           1           1           1           1           1           1           1
                1           1           1           1           1           1           1           1           1           1
                1           1           1           1           1           1           1           1           1           1
                1           1           1           1           1           1           1           1           1           1
                1           1           1           1           0           0           0           0           0           0
                0           0           0           0           0           0           0           0           0           0

                     CONCN. BOUNDARY ARRAY    FOR LAYER 12 READ ON UNIT281 USING FORMAT: "(25I3)              "
                     ------------------------------------------------------------------------------------------

                1           2           3           4           5           6           7           8           9          10
               11          12          13          14          15          16          17          18          19          20
               21          22          23          24          25          26          27          28          29          30
               31          32          33          34          35          36          37          38          39          40
               41          42          43          44          45          46          47          48          49          50
               51          52          53          54          55          56          57          58          59          60
               61          62          63          64          65          66          67          68          69          70
               71          72          73          74          75          76          77          78          79          80
               81          82          83          84          85          86          87          88          89          90
               91          92          93          94          95          96          97          98          99         100
 ............................................................................................................................
   1            1           1           1           1           1           1           1           1           1           1
                1           1           1           1           1           1           1           1           1           1
                1           1           1           1           1           1           1           1           1           1
                1           1           1           1           1           1           1           1           1           1
                1           1           1           1           1           1           1           1           1           1
                1           1           1           1           1           1           1           1           1           1
                1           1           1           1           1           1           1           1           1           1
                1           1           1           1           1           1           1           1           1           1
                1           1           1           1           1           0           0           0           0           0
                0           0           0           0           0           0           0           0           0           0

                     CONCN. BOUNDARY ARRAY    FOR LAYER 13 READ ON UNIT281 USING FORMAT: "(25I3)              "
                     ------------------------------------------------------------------------------------------

                1           2           3           4           5           6           7           8           9          10
               11          12          13          14          15          16          17          18          19          20
               21          22          23          24          25          26          27          28          29          30
               31          32          33          34          35          36          37          38          39          40
               41          42          43          44          45          46          47          48          49          50
               51          52          53          54          55          56          57          58          59          60
               61          62          63          64          65          66          67          68          69          70
               71          72          73          74          75          76          77          78          79          80
               81          82          83          84          85          86          87          88          89          90
               91          92          93          94          95          96          97          98          99         100
 ............................................................................................................................
   1            1           1           1           1           1           1           1           1           1           1
                1           1           1           1           1           1           1           1           1           1
                1           1           1           1           1           1           1           1           1           1
                1           1           1           1           1           1           1           1           1           1
                1           1           1           1           1           1           1           1           1           1
                1           1           1           1           1           1           1           1           1           1
                1           1           1           1           1           1           1           1           1           1
                1           1           1           1           1           1           1           1           1           1
                1           1           1           1           1           1           0           0           0           0
                0           0           0           0           0           0           0           0           0           0

                     CONCN. BOUNDARY ARRAY    FOR LAYER 14 READ ON UNIT281 USING FORMAT: "(25I3)              "
                     ------------------------------------------------------------------------------------------

                1           2           3           4           5           6           7           8           9          10
               11          12          13          14          15          16          17          18          19          20
               21          22          23          24          25          26          27          28          29          30
               31          32          33          34          35          36          37          38          39          40
               41          42          43          44          45          46          47          48          49          50
               51          52          53          54          55          56          57          58          59          60
               61          62          63          64          65          66          67          68          69          70
               71          72          73          74          75          76          77          78          79          80
               81          82          83          84          85          86          87          88          89          90
               91          92          93          94          95          96          97          98          99         100
 ............................................................................................................................
   1            1           1           1           1           1           1           1           1           1           1
                1           1           1           1           1           1           1           1           1           1
                1           1           1           1           1           1           1           1           1           1
                1           1           1           1           1           1           1           1           1           1
                1           1           1           1           1           1           1           1           1           1
                1           1           1           1           1           1           1           1           1           1
                1           1           1           1           1           1           1           1           1           1
                1           1           1           1           1           1           1           1           1           1
                1           1           1           1           1           1           1           0           0           0
                0           0           0           0           0           0           0           0           0           0

                     CONCN. BOUNDARY ARRAY    FOR LAYER 15 READ ON UNIT281 USING FORMAT: "(25I3)              "
                     ------------------------------------------------------------------------------------------

                1           2           3           4           5           6           7           8           9          10
               11          12          13          14          15          16          17          18          19          20
               21          22          23          24          25          26          27          28          29          30
               31          32          33          34          35          36          37          38          39          40
               41          42          43          44          45          46          47          48          49          50
               51          52          53          54          55          56          57          58          59          60
               61          62          63          64          65          66          67          68          69          70
               71          72          73          74          75          76          77          78          79          80
               81          82          83          84          85          86          87          88          89          90
               91          92          93          94          95          96          97          98          99         100
 ............................................................................................................................
   1            1           1           1           1           1           1           1           1           1           1
                1           1           1           1           1           1           1           1           1           1
                1           1           1           1           1           1           1           1           1           1
                1           1           1           1           1           1           1           1           1           1
                1           1           1           1           1           1           1           1           1           1
                1           1           1           1           1           1           1           1           1           1
                1           1           1           1           1           1           1           1           1           1
                1           1           1           1           1           1           1           1           1           1
                1           1           1           1           1           1           1           1           1           0
                0           0           0           0           0           0           0           0           0           0

                     CONCN. BOUNDARY ARRAY    FOR LAYER 16 READ ON UNIT281 USING FORMAT: "(25I3)              "
                     ------------------------------------------------------------------------------------------

                1           2           3           4           5           6           7           8           9          10
               11          12          13          14          15          16          17          18          19          20
               21          22          23          24          25          26          27          28          29          30
               31          32          33          34          35          36          37          38          39          40
               41          42          43          44          45          46          47          48          49          50
               51          52          53          54          55          56          57          58          59          60
               61          62          63          64          65          66          67          68          69          70
               71          72          73          74          75          76          77          78          79          80
               81          82          83          84          85          86          87          88          89          90
               91          92          93          94          95          96          97          98          99         100
 ............................................................................................................................
   1            0           0           0           0           0           0           0           0           0           0
                0           0           0           0           0           0           0           0           0           0
                1           1           1           1           1           1           1           1           1           1
                1           1           1           1           1           1           1           1           1           1
                1           1           1           1           1           1           1           1           1           1
                1           1           1           1           1           1           1           1           1           1
                1           1           1           1           1           1           1           1           1           1
                1           1           1           1           1           1           1           1           1           1
                1           1           1           1           1           1           1           1           1           1
                0           0           0           0           0           0           0           0           0           0

                     CONCN. BOUNDARY ARRAY    FOR LAYER 17 READ ON UNIT281 USING FORMAT: "(25I3)              "
                     ------------------------------------------------------------------------------------------

                1           2           3           4           5           6           7           8           9          10
               11          12          13          14          15          16          17          18          19          20
               21          22          23          24          25          26          27          28          29          30
               31          32          33          34          35          36          37          38          39          40
               41          42          43          44          45          46          47          48          49          50
               51          52          53          54          55          56          57          58          59          60
               61          62          63          64          65          66          67          68          69          70
               71          72          73          74          75          76          77          78          79          80
               81          82          83          84          85          86          87          88          89          90
               91          92          93          94          95          96          97          98          99         100
 ............................................................................................................................
   1            0           0           0           0           0           0           0           0           0           0
                0           0           0           0           0           0           0           0           0           0
                0           0           0           0           0           1           1           1           1           1
                1           1           1           1           1           1           1           1           1           1
                1           1           1           1           1           1           1           1           1           1
                1           1           1           1           1           1           1           1           1           1
                1           1           1           1           1           1           1           1           1           1
                1           1           1           1           1           1           1           1           1           1
                1           1           1           1           1           1           1           1           1           1
                1           0           0           0           0           0           0           0           0           0

                     CONCN. BOUNDARY ARRAY    FOR LAYER 18 READ ON UNIT281 USING FORMAT: "(25I3)              "
                     ------------------------------------------------------------------------------------------

                1           2           3           4           5           6           7           8           9          10
               11          12          13          14          15          16          17          18          19          20
               21          22          23          24          25          26          27          28          29          30
               31          32          33          34          35          36          37          38          39          40
               41          42          43          44          45          46          47          48          49          50
               51          52          53          54          55          56          57          58          59          60
               61          62          63          64          65          66          67          68          69          70
               71          72          73          74          75          76          77          78          79          80
               81          82          83          84          85          86          87          88          89          90
               91          92          93          94          95          96          97          98          99         100
 ............................................................................................................................
   1            0           0           0           0           0           0           0           0           0           0
                0           0           0           0           0           0           0           0           0           0
                0           0           0           0           0           0           0           0           0           0
                1           1           1           1           1           1           1           1           1           1
                1           1           1           1           1           1           1           1           1           1
                1           1           1           1           1           1           1           1           1           1
                1           1           1           1           1           1           1           1           1           1
                1           1           1           1           1           1           1           1           1           1
                1           1           1           1           1           1           1           1           1           1
                1           1           0           0           0           0           0           0           0           0

                     CONCN. BOUNDARY ARRAY    FOR LAYER 19 READ ON UNIT281 USING FORMAT: "(25I3)              "
                     ------------------------------------------------------------------------------------------

                1           2           3           4           5           6           7           8           9          10
               11          12          13          14          15          16          17          18          19          20
               21          22          23          24          25          26          27          28          29          30
               31          32          33          34          35          36          37          38          39          40
               41          42          43          44          45          46          47          48          49          50
               51          52          53          54          55          56          57          58          59          60
               61          62          63          64          65          66          67          68          69          70
               71          72          73          74          75          76          77          78          79          80
               81          82          83          84          85          86          87          88          89          90
               91          92          93          94          95          96          97          98          99         100
 ............................................................................................................................
   1            0           0           0           0           0           0           0           0           0           0
                0           0           0           0           0           0           0           0           0           0
                0           0           0           0           0           0           0           0           0           0
                0           0           0           0           1           1           1           1           1           1
                1           1           1           1           1           1           1           1           1           1
                1           1           1           1           1           1           1           1           1           1
                1           1           1           1           1           1           1           1           1           1
                1           1           1           1           1           1           1           1           1           1
                1           1           1           1           1           1           1           1           1           1
                1           1           1           1           0           0           0           0           0           0

                     CONCN. BOUNDARY ARRAY    FOR LAYER 20 READ ON UNIT281 USING FORMAT: "(25I3)              "
                     ------------------------------------------------------------------------------------------

                1           2           3           4           5           6           7           8           9          10
               11          12          13          14          15          16          17          18          19          20
               21          22          23          24          25          26          27          28          29          30
               31          32          33          34          35          36          37          38          39          40
               41          42          43          44          45          46          47          48          49          50
               51          52          53          54          55          56          57          58          59          60
               61          62          63          64          65          66          67          68          69          70
               71          72          73          74          75          76          77          78          79          80
               81          82          83          84          85          86          87          88          89          90
               91          92          93          94          95          96          97          98          99         100
 ............................................................................................................................
   1            0           0           0           0           0           0           0           0           0           0
                0           0           0           0           0           0           0           0           0           0
                0           0           0           0           0           0           0           0           0           0
                0           0           0           0           0           0           0           0           0           1
                1           1           1           1           1           1           1           1           1           1
                1           1           1           1           1           1           1           1           1           1
                1           1           1           1           1           1           1           1           1           1
                1           1           1           1           1           1           1           1           1           1
                1           1           1           1           1           1           1           1           1           1
                1           1           1           1           1           0           0           0           0           0

                     CONCN. BOUNDARY ARRAY    FOR LAYER 21 READ ON UNIT281 USING FORMAT: "(25I3)              "
                     ------------------------------------------------------------------------------------------

                1           2           3           4           5           6           7           8           9          10
               11          12          13          14          15          16          17          18          19          20
               21          22          23          24          25          26          27          28          29          30
               31          32          33          34          35          36          37          38          39          40
               41          42          43          44          45          46          47          48          49          50
               51          52          53          54          55          56          57          58          59          60
               61          62          63          64          65          66          67          68          69          70
               71          72          73          74          75          76          77          78          79          80
               81          82          83          84          85          86          87          88          89          90
               91          92          93          94          95          96          97          98          99         100
 ............................................................................................................................
   1            0           0           0           0           0           0           0           0           0           0
                0           0           0           0           0           0           0           0           0           0
                0           0           0           0           0           0           0           0           0           0
                0           0           0           0           0           0           0           0           0           0
                0           0           0           0           0           1           1           1           1           1
                1           1           1           1           1           1           1           1           1           1
                1           1           1           1           1           1           1           1           1           1
                1           1           1           1           1           1           1           1           1           1
                1           1           1           1           1           1           1           1           1           1
                1           1           1           1           1           1           1           0           0           0

                     CONCN. BOUNDARY ARRAY    FOR LAYER 22 READ ON UNIT281 USING FORMAT: "(25I3)              "
                     ------------------------------------------------------------------------------------------

                1           2           3           4           5           6           7           8           9          10
               11          12          13          14          15          16          17          18          19          20
               21          22          23          24          25          26          27          28          29          30
               31          32          33          34          35          36          37          38          39          40
               41          42          43          44          45          46          47          48          49          50
               51          52          53          54          55          56          57          58          59          60
               61          62          63          64          65          66          67          68          69          70
               71          72          73          74          75          76          77          78          79          80
               81          82          83          84          85          86          87          88          89          90
               91          92          93          94          95          96          97          98          99         100
 ............................................................................................................................
   1            0           0           0           0           0           0           0           0           0           0
                0           0           0           0           0           0           0           0           0           0
                0           0           0           0           0           0           0           0           0           0
                0           0           0           0           0           0           0           0           0           0
                0           0           0           0           0           0           0           0           0           0
                0           1           1           1           1           1           1           1           1           1
                1           1           1           1           1           1           1           1           1           1
                1           1           1           1           1           1           1           1           1           1
                1           1           1           1           1           1           1           1           1           1
                1           1           1           1           1           1           1           1           1           0

                     CONCN. BOUNDARY ARRAY    FOR LAYER 23 READ ON UNIT281 USING FORMAT: "(25I3)              "
                     ------------------------------------------------------------------------------------------

                1           2           3           4           5           6           7           8           9          10
               11          12          13          14          15          16          17          18          19          20
               21          22          23          24          25          26          27          28          29          30
               31          32          33          34          35          36          37          38          39          40
               41          42          43          44          45          46          47          48          49          50
               51          52          53          54          55          56          57          58          59          60
               61          62          63          64          65          66          67          68          69          70
               71          72          73          74          75          76          77          78          79          80
               81          82          83          84          85          86          87          88          89          90
               91          92          93          94          95          96          97          98          99         100
 ............................................................................................................................
   1            0           0           0           0           0           0           0           0           0           0
                0           0           0           0           0           0           0           0           0           0
                0           0           0           0           0           0           0           0           0           0
                0           0           0           0           0           0           0           0           0           0
                0           0           0           0           0           0           0           0           0           0
                0           0           0           0           0           0           0           0           1           1
                1           1           1           1           1           1           1           1           1           1
                1           1           1           1           1           1           1           1           1           1
                1           1           1           1           1           1           1           1           1           1
                1           1           1           1           1           1           1           1           1           1

                     INITIAL CONC.: COMP.  01 FOR LAYER  1 READ ON UNIT281 USING FORMAT: "(10E12.4)           "
                     ------------------------------------------------------------------------------------------

                     INITIAL CONC.: COMP.  01 FOR LAYER  2 READ ON UNIT281 USING FORMAT: "(10E12.4)           "
                     ------------------------------------------------------------------------------------------

                     INITIAL CONC.: COMP.  01 FOR LAYER  3 READ ON UNIT281 USING FORMAT: "(10E12.4)           "
                     ------------------------------------------------------------------------------------------

                     INITIAL CONC.: COMP.  01 FOR LAYER  4 READ ON UNIT281 USING FORMAT: "(10E12.4)           "
                     ------------------------------------------------------------------------------------------

                     INITIAL CONC.: COMP.  01 FOR LAYER  5 READ ON UNIT281 USING FORMAT: "(10E12.4)           "
                     ------------------------------------------------------------------------------------------

                     INITIAL CONC.: COMP.  01 FOR LAYER  6 READ ON UNIT281 USING FORMAT: "(10E12.4)           "
                     ------------------------------------------------------------------------------------------

                     INITIAL CONC.: COMP.  01 FOR LAYER  7 READ ON UNIT281 USING FORMAT: "(10E12.4)           "
                     ------------------------------------------------------------------------------------------

                     INITIAL CONC.: COMP.  01 FOR LAYER  8 READ ON UNIT281 USING FORMAT: "(10E12.4)           "
                     ------------------------------------------------------------------------------------------

                     INITIAL CONC.: COMP.  01 FOR LAYER  9 READ ON UNIT281 USING FORMAT: "(10E12.4)           "
                     ------------------------------------------------------------------------------------------

                     INITIAL CONC.: COMP.  01 FOR LAYER 10 READ ON UNIT281 USING FORMAT: "(10E12.4)           "
                     ------------------------------------------------------------------------------------------

                     INITIAL CONC.: COMP.  01 FOR LAYER 11 READ ON UNIT281 USING FORMAT: "(10E12.4)           "
                     ------------------------------------------------------------------------------------------

                     INITIAL CONC.: COMP.  01 FOR LAYER 12 READ ON UNIT281 USING FORMAT: "(10E12.4)           "
                     ------------------------------------------------------------------------------------------

                     INITIAL CONC.: COMP.  01 FOR LAYER 13 READ ON UNIT281 USING FORMAT: "(10E12.4)           "
                     ------------------------------------------------------------------------------------------

                     INITIAL CONC.: COMP.  01 FOR LAYER 14 READ ON UNIT281 USING FORMAT: "(10E12.4)           "
                     ------------------------------------------------------------------------------------------

                     INITIAL CONC.: COMP.  01 FOR LAYER 15 READ ON UNIT281 USING FORMAT: "(10E12.4)           "
                     ------------------------------------------------------------------------------------------

                     INITIAL CONC.: COMP.  01 FOR LAYER 16 READ ON UNIT281 USING FORMAT: "(10E12.4)           "
                     ------------------------------------------------------------------------------------------

                     INITIAL CONC.: COMP.  01 FOR LAYER 17 READ ON UNIT281 USING FORMAT: "(10E12.4)           "
                     ------------------------------------------------------------------------------------------

                     INITIAL CONC.: COMP.  01 FOR LAYER 18 READ ON UNIT281 USING FORMAT: "(10E12.4)           "
                     ------------------------------------------------------------------------------------------

                     INITIAL CONC.: COMP.  01 FOR LAYER 19 READ ON UNIT281 USING FORMAT: "(10E12.4)           "
                     ------------------------------------------------------------------------------------------

                     INITIAL CONC.: COMP.  01 FOR LAYER 20 READ ON UNIT281 USING FORMAT: "(10E12.4)           "
                     ------------------------------------------------------------------------------------------

                     INITIAL CONC.: COMP.  01 FOR LAYER 21 READ ON UNIT281 USING FORMAT: "(10E12.4)           "
                     ------------------------------------------------------------------------------------------

                     INITIAL CONC.: COMP.  01 FOR LAYER 22 READ ON UNIT281 USING FORMAT: "(10E12.4)           "
                     ------------------------------------------------------------------------------------------

                     INITIAL CONC.: COMP.  01 FOR LAYER 23 READ ON UNIT281 USING FORMAT: "(10E12.4)           "
                     ------------------------------------------------------------------------------------------

 VALUE INDICATING INACTIVE CONCENTRATION CELLS =   -1.000000    
 MINIMUM SATURATED THICKNESS [THKMIN] ALLOWED =  0.0500 OF TOTAL CELL THICKNESS


 OUTPUT CONTROL OPTIONS
 ----------------------

 DO NOT PRINT CELL CONCENTRATION
 DO NOT PRINT PARTICLE NUMBER IN EACH CELL
 DO NOT PRINT RETARDATION FACTOR
 DO NOT PRINT DISPERSION COEFFICIENT
 SAVE DISSOLVED PHASE CONCENTRATIONS IN UNFORMATTED FILES [MT3Dnnn.UCN]
  FOR EACH SPECIES ON UNITS 201 AND ABOVE

 SIMULATION RESULTS ARE SAVED EVERY  10 TRANSPORT STEP(S)

 NUMBER OF OBSERVATION POINTS =    0

 SAVE ONE-LINE SUMMARY OF MASS BUDGETS IN FILES [MT3Dnnn.MAS]
  FOR EACH SPECIES ON UNITS 601 AND ABOVE, EVERY  1 TRANSPORT STEPS

 MAXIMUM LENGTH ALONG THE X (J) AXIS =   10000.00    
 MAXIMUM LENGTH ALONG THE Y (I) AXIS =   100.0000    
 MAXIMUM LENGTH ALONG THE Z (K) AXIS =   115.0000    


 ADVECTION SOLUTION OPTIONS
 --------------------------

 ADVECTION IS SOLVED WITH THE ULTIMATE SCHEME
 COURANT NUMBER ALLOWED IN SOLVING THE ADVECTION TERM = 0.500    


 DISPERSION INPUT PARAMETERS
 ---------------------------

 DISPERSION PACKAGE INPUT KEYWORDS: MULTIDIFFUSION
                                       LONG. DISPERSIVITY (AL)  =   10.00000     FOR LAYER  1
                                       LONG. DISPERSIVITY (AL)  =   10.00000     FOR LAYER  2
                                       LONG. DISPERSIVITY (AL)  =   10.00000     FOR LAYER  3
                                       LONG. DISPERSIVITY (AL)  =   10.00000     FOR LAYER  4
                                       LONG. DISPERSIVITY (AL)  =   10.00000     FOR LAYER  5
                                       LONG. DISPERSIVITY (AL)  =   10.00000     FOR LAYER  6
                                       LONG. DISPERSIVITY (AL)  =   10.00000     FOR LAYER  7
                                       LONG. DISPERSIVITY (AL)  =   10.00000     FOR LAYER  8
                                       LONG. DISPERSIVITY (AL)  =   10.00000     FOR LAYER  9
                                       LONG. DISPERSIVITY (AL)  =   10.00000     FOR LAYER 10
                                       LONG. DISPERSIVITY (AL)  =   10.00000     FOR LAYER 11
                                       LONG. DISPERSIVITY (AL)  =   10.00000     FOR LAYER 12
                                       LONG. DISPERSIVITY (AL)  =   10.00000     FOR LAYER 13
                                       LONG. DISPERSIVITY (AL)  =   10.00000     FOR LAYER 14
                                       LONG. DISPERSIVITY (AL)  =   10.00000     FOR LAYER 15
                                       LONG. DISPERSIVITY (AL)  =   10.00000     FOR LAYER 16
                                       LONG. DISPERSIVITY (AL)  =   10.00000     FOR LAYER 17
                                       LONG. DISPERSIVITY (AL)  =   10.00000     FOR LAYER 18
                                       LONG. DISPERSIVITY (AL)  =   10.00000     FOR LAYER 19
                                       LONG. DISPERSIVITY (AL)  =   10.00000     FOR LAYER 20
                                       LONG. DISPERSIVITY (AL)  =   10.00000     FOR LAYER 21
                                       LONG. DISPERSIVITY (AL)  =   10.00000     FOR LAYER 22
                                       LONG. DISPERSIVITY (AL)  =   10.00000     FOR LAYER 23

                           H. TRANS./LONG. DISP.    READ ON UNIT283 USING FORMAT: "(10E12.4)           "
                           -----------------------------------------------------------------------------

                           V. TRANS./LONG. DISP.    READ ON UNIT283 USING FORMAT: "(10E12.4)           "
                           -----------------------------------------------------------------------------
                                       DIFFUSION COEFF. COMP 01 =   0.000000     FOR LAYER  1
                                       DIFFUSION COEFF. COMP 01 =   0.000000     FOR LAYER  2
                                       DIFFUSION COEFF. COMP 01 =   0.000000     FOR LAYER  3
                                       DIFFUSION COEFF. COMP 01 =   0.000000     FOR LAYER  4
                                       DIFFUSION COEFF. COMP 01 =   0.000000     FOR LAYER  5
                                       DIFFUSION COEFF. COMP 01 =   0.000000     FOR LAYER  6
                                       DIFFUSION COEFF. COMP 01 =   0.000000     FOR LAYER  7
                                       DIFFUSION COEFF. COMP 01 =   0.000000     FOR LAYER  8
                                       DIFFUSION COEFF. COMP 01 =   0.000000     FOR LAYER  9
                                       DIFFUSION COEFF. COMP 01 =   0.000000     FOR LAYER 10
                                       DIFFUSION COEFF. COMP 01 =   0.000000     FOR LAYER 11
                                       DIFFUSION COEFF. COMP 01 =   0.000000     FOR LAYER 12
                                       DIFFUSION COEFF. COMP 01 =   0.000000     FOR LAYER 13
                                       DIFFUSION COEFF. COMP 01 =   0.000000     FOR LAYER 14
                                       DIFFUSION COEFF. COMP 01 =   0.000000     FOR LAYER 15
                                       DIFFUSION COEFF. COMP 01 =   0.000000     FOR LAYER 16
                                       DIFFUSION COEFF. COMP 01 =   0.000000     FOR LAYER 17
                                       DIFFUSION COEFF. COMP 01 =   0.000000     FOR LAYER 18
                                       DIFFUSION COEFF. COMP 01 =   0.000000     FOR LAYER 19
                                       DIFFUSION COEFF. COMP 01 =   0.000000     FOR LAYER 20
                                       DIFFUSION COEFF. COMP 01 =   0.000000     FOR LAYER 21
                                       DIFFUSION COEFF. COMP 01 =   0.000000     FOR LAYER 22
                                       DIFFUSION COEFF. COMP 01 =   0.000000     FOR LAYER 23



                                               SOLUTION BY THE GENERALIZED CONJUGATE GRADIENT METHOD
                                               -----------------------------------------------------
                                     MAXIMUM OUTER ITERATIONS ALLOWED FOR CLOSURE =        1
                                     MAXIMUM INNER ITERATIONS ALLOWED FOR CLOSURE =       50
                                                    PRECONDITIONING TYPE SELECTED =    2
                                                           ACCELERATION PARAMETER =     1.0000    
                                       CONCENTRATION CHANGE CRITERION FOR CLOSURE =    0.10000E-05
                                       GCG CONCENTRATION CHANGE PRINTOUT INTERVAL =        5


                                   ++++++++++++++++++++++++++++++++++++++++++++++++++++++++++++++
                                                       STRESS PERIOD NO.  001
                                   ++++++++++++++++++++++++++++++++++++++++++++++++++++++++++++++


 LENGTH OF CURRENT STRESS PERIOD =   2000.000    
 NUMBER OF TIME STEPS FOR CURRENT STRESS PERIOD =    1
 TIME STEP MULTIPLIER USED IN FLOW SOLUTION =   1.000000    
 USER-SPECIFIED TRANSPORT STEPSIZE =   0.000000    D   
 MAXIMUM NUMBER OF TRANSPORT STEPS ALLOWED  IN ONE FLOW TIME STEP =     99999
 MULTIPLIER FOR SUCCESSIVE TRANSPORT STEPS  [USED IN IMPLICIT SCHEMES] =     1.000
 MAXIMUM TRANSPORT STEP SIZE  [USED IN IMPLICIT SCHEMES] =   0.000000    D   
1
                            STRESS PERIOD NO.    1, LENGTH =   2000.000    
                            -----------------------------------------------

                              NUMBER OF TIME STEPS =     1

                               MULTIPLIER FOR DELT =     1.000

                            INITIAL TIME STEP SIZE =   2000.000    

 CONCENTRATION OF RECHARGE FLUXES WILL BE READ IN STRESS PERIOD  1
                                       RECH. CONC. COMP.  01    =   0.000000    

       NO    LAYER   ROW   COLUMN   CONCENTRATION       TYPE            COMPONENT
       1       1       1      71       35.00000         CONSTANT HEAD       1
       2      23       1     100       35.00000         CONSTANT HEAD       1
       3       2       1      72       35.00000         CONSTANT HEAD       1
       4       3       1      73       35.00000         CONSTANT HEAD       1
       5       3       1      74       35.00000         CONSTANT HEAD       1
       6       4       1      75       35.00000         CONSTANT HEAD       1
       7       5       1      76       35.00000         CONSTANT HEAD       1
       8       6       1      77       35.00000         CONSTANT HEAD       1
       9       6       1      78       35.00000         CONSTANT HEAD       1
      10       7       1      79       35.00000         CONSTANT HEAD       1
      11       8       1      80       35.00000         CONSTANT HEAD       1
      12       9       1      81       35.00000         CONSTANT HEAD       1
      13      10       1      82       35.00000         CONSTANT HEAD       1
      14      11       1      83       35.00000         CONSTANT HEAD       1
      15      11       1      84       35.00000         CONSTANT HEAD       1
      16      12       1      85       35.00000         CONSTANT HEAD       1
      17      13       1      86       35.00000         CONSTANT HEAD       1
      18      14       1      87       35.00000         CONSTANT HEAD       1
      19      15       1      88       35.00000         CONSTANT HEAD       1
      20      15       1      89       35.00000         CONSTANT HEAD       1
      21      16       1      90       35.00000         CONSTANT HEAD       1
      22      17       1      91       35.00000         CONSTANT HEAD       1
      23      18       1      92       35.00000         CONSTANT HEAD       1
      24      19       1      93       35.00000         CONSTANT HEAD       1
      25      19       1      94       35.00000         CONSTANT HEAD       1
      26      20       1      95       35.00000         CONSTANT HEAD       1
      27      21       1      96       35.00000         CONSTANT HEAD       1
      28      22       1      98       35.00000         CONSTANT HEAD       1
      29      21       1      97       35.00000         CONSTANT HEAD       1
      30      22       1      99       35.00000         CONSTANT HEAD       1



                           RECHARGE
 READING ON UNIT   18 WITH FORMAT: (10e12.4)           


                                          ================================================
                                                         FROM TIME =   0.0000     TO    2000.0    

 
 SOLVING FOR HEAD 


     3 CALLS TO PCG ROUTINE FOR TIME STEP   1 IN STRESS PERIOD    1
    14 TOTAL ITERATIONS

 MAXIMUM HEAD CHANGE FOR EACH ITERATION (1 INDICATES THE FIRST INNER ITERATION):

    HEAD CHANGE    HEAD CHANGE    HEAD CHANGE    HEAD CHANGE    HEAD CHANGE 
   LAYER,ROW,COL  LAYER,ROW,COL  LAYER,ROW,COL  LAYER,ROW,COL  LAYER,ROW,COL
 ---------------------------------------------------------------------------
  1  -4.215      0   2.995      0  0.6058      0  0.1936      0  0.1004    
   ( 19,  1, 71)  ( 17,  1, 71)  ( 18,  1, 72)  ( 17,  1, 69)  ( 23,  1, 67)
  0  0.3779E-01  0  0.1385E-01  0  0.7414E-02  0  0.2317E-02  0 -0.1220E-02
   ( 21,  1, 64)  ( 23,  1, 62)  ( 23,  1, 85)  ( 22,  1, 56)  ( 16,  1, 58)
  1 -0.4984E-03  0 -0.2745E-03  0  0.1128E-03  1  0.4575E-04
   ( 19,  1, 55)  ( 16,  1, 54)  ( 18,  1, 67)  ( 21,  1, 85)

 MAXIMUM RESIDUAL FOR EACH ITERATION (1 INDICATES THE FIRST INNER ITERATION):

    RESIDUAL       RESIDUAL       RESIDUAL       RESIDUAL       RESIDUAL    
   LAYER,ROW,COL  LAYER,ROW,COL  LAYER,ROW,COL  LAYER,ROW,COL  LAYER,ROW,COL
 ---------------------------------------------------------------------------
  1 -0.3276E+09  0  0.2296E+08  0 -0.1339E+08  0  0.6330E+07  0 -0.2390E+07
   ( 18,  1, 71)  ( 19,  1, 75)  ( 17,  1, 76)  ( 19,  1, 75)  ( 16,  1, 78)
  0 -0.1011E+07  0 -0.5463E+06  0  0.2281E+06  0  0.9738E+05  0  0.3188E+05
   ( 16,  1, 78)  ( 16,  1, 78)  ( 17,  1, 78)  ( 17,  1, 78)  ( 17,  1, 78)
  1 -0.4101E+05  0 -0.2140E+05  0  -8933.      1  -6630.    
   ( 18,  1, 71)  ( 18,  1, 71)  ( 18,  1, 71)  ( 18,  1, 71)


 FLOW MODEL IS TRANSIENT
 FLOW MODEL CONTAINS CONSTANT-HEAD CELLS


 MAXIMUM STEPSIZE DURING WHICH ANY PARTICLE CANNOT MOVE MORE THAN ONE CELL
 =  1.943    (WHEN MIN. R.F.=1)  AT K=  20, I=   1, J=  70

 MAXIMUM STEPSIZE WHICH MEETS STABILITY CRITERION OF THE ADVECTION TERM
 (FOR PURE FINITE-DIFFERENCE OPTION, MIXELM=0) 
 =  1.210    (WHEN MIN. R.F.=1)  AT K=  22, I=   1, J=  70


 TOTAL NUMBER OF POINT SOURCES/SINKS PRESENT IN THE FLOW MODEL =    30

 MAXIMUM STEPSIZE WHICH MEETS STABILITY CRITERION OF THE SINK & SOURCE TERM
 =  13.16    (WHEN MIN. R.F.=1)  AT K=  16, I=   1, J=  90

 MAXIMUM STEPSIZE WHICH MEETS STABILITY CRITERION OF THE DISPERSION TERM
 = 0.3858    (WHEN MIN. R.F.=1)  AT K=  22, I=   1, J=  70


     1 CALLS TO GCG PACKAGE FOR TRANSPORT TIME STEP   1 IN FLOW TIME STEP   1 STRESS PERIOD   1
     2 TOTAL ITERATIONS

 HEAD/DRAWDOWN PRINTOUT FLAG = 1     TOTAL BUDGET PRINTOUT FLAG = 1
 CELL-BY-CELL FLOW TERM FLAG = 1

 OUTPUT FLAGS FOR ALL LAYERS ARE THE SAME:
   HEAD    DRAWDOWN  HEAD  DRAWDOWN
 PRINTOUT  PRINTOUT  SAVE    SAVE
 ----------------------------------
     0         0       1       0
 
 SOLVING FOR HEAD 


     3 CALLS TO PCG ROUTINE FOR TIME STEP   1 IN STRESS PERIOD    1
    16 TOTAL ITERATIONS

 MAXIMUM HEAD CHANGE FOR EACH ITERATION (1 INDICATES THE FIRST INNER ITERATION):

    HEAD CHANGE    HEAD CHANGE    HEAD CHANGE    HEAD CHANGE    HEAD CHANGE 
   LAYER,ROW,COL  LAYER,ROW,COL  LAYER,ROW,COL  LAYER,ROW,COL  LAYER,ROW,COL
 ---------------------------------------------------------------------------
  1   1.248      0  0.5890      0 -0.9432      0  -1.412      0 -0.7310    
   ( 21,  1, 62)  ( 10,  1, 12)  ( 15,  1, 79)  ( 15,  1, 79)  ( 15,  1, 79)
  0 -0.4541      0 -0.2447      0 -0.6344E-01  0 -0.3285E-01  0 -0.1742E-01
   ( 15,  1, 79)  ( 15,  1, 79)  ( 15,  1, 79)  ( 11,  1, 35)  ( 11,  1, 33)
  1 -0.2009E-02  0 -0.3012E-02  0 -0.9973E-03  0 -0.1829E-02  0 -0.9034E-03
   ( 11,  1, 77)  ( 11,  1, 77)  ( 11,  1, 77)  ( 11,  1, 77)  ( 15,  1, 79)
  1  0.3093E-03
   ( 11,  1, 71)

 MAXIMUM RESIDUAL FOR EACH ITERATION (1 INDICATES THE FIRST INNER ITERATION):

    RESIDUAL       RESIDUAL       RESIDUAL       RESIDUAL       RESIDUAL    
   LAYER,ROW,COL  LAYER,ROW,COL  LAYER,ROW,COL  LAYER,ROW,COL  LAYER,ROW,COL
 ---------------------------------------------------------------------------
  1  0.2088E+07  0  0.2017E+07  0  0.1411E+07  0  0.7893E+06  0  0.4253E+06
   ( 23,  1, 71)  ( 23,  1, 71)  ( 23,  1, 71)  ( 23,  1, 71)  ( 23,  1, 71)
  0  0.1724E+06  0  0.5708E+05  0  0.3149E+05  0  0.1668E+05  0   8653.    
   ( 23,  1, 71)  ( 23,  1, 70)  ( 23,  1, 70)  ( 23,  1, 70)  ( 23,  1, 70)
  1  0.2165E+05  0  0.1455E+05  0  0.1197E+05  0   6891.      0   3626.    
   ( 18,  1, 76)  ( 18,  1, 76)  ( 18,  1, 76)  ( 18,  1, 76)  ( 18,  1, 76)
  1   2896.    
   ( 18,  1, 76)


 FLOW MODEL IS TRANSIENT
 FLOW MODEL CONTAINS CONSTANT-HEAD CELLS


 MAXIMUM STEPSIZE DURING WHICH ANY PARTICLE CANNOT MOVE MORE THAN ONE CELL
 =  2.061    (WHEN MIN. R.F.=1)  AT K=  20, I=   1, J=  71

 MAXIMUM STEPSIZE WHICH MEETS STABILITY CRITERION OF THE ADVECTION TERM
 (FOR PURE FINITE-DIFFERENCE OPTION, MIXELM=0) 
 =  1.605    (WHEN MIN. R.F.=1)  AT K=  22, I=   1, J=  71


 TOTAL NUMBER OF POINT SOURCES/SINKS PRESENT IN THE FLOW MODEL =    30

 MAXIMUM STEPSIZE WHICH MEETS STABILITY CRITERION OF THE SINK & SOURCE TERM
 =  9.079    (WHEN MIN. R.F.=1)  AT K=  16, I=   1, J=  90

 MAXIMUM STEPSIZE WHICH MEETS STABILITY CRITERION OF THE DISPERSION TERM
 = 0.6366    (WHEN MIN. R.F.=1)  AT K=  19, I=   1, J=  71
     1 CALLS TO GCG PACKAGE FOR TRANSPORT TIME STEP   2 IN FLOW TIME STEP   1 STRESS PERIOD   1
     5 TOTAL ITERATIONS
0WARNING: NUMERICAL OSCILLATION ENCOUNTERED
 ONE OR MORE CELL CONCENTRATIONS LESS THAN CRHOREF
 SMALLEST DENSITY =  0.100E+04
 AT CELL (I,J,K) = (   1,  70,  18)

 
 SOLVING FOR HEAD 


     3 CALLS TO PCG ROUTINE FOR TIME STEP   1 IN STRESS PERIOD    1
    15 TOTAL ITERATIONS

 MAXIMUM HEAD CHANGE FOR EACH ITERATION (1 INDICATES THE FIRST INNER ITERATION):

    HEAD CHANGE    HEAD CHANGE    HEAD CHANGE    HEAD CHANGE    HEAD CHANGE 
   LAYER,ROW,COL  LAYER,ROW,COL  LAYER,ROW,COL  LAYER,ROW,COL  LAYER,ROW,COL
 ---------------------------------------------------------------------------
  1   1.612      0  0.8662      0  0.5162      0  0.6940      0  0.3431    
   ( 15,  1, 79)  ( 15,  1, 79)  ( 15,  1, 79)  ( 15,  1, 79)  ( 15,  1, 79)
  0  0.1079      0  0.4320E-01  0 -0.2774E-01  0  0.1025E-01  0  0.6874E-02
   ( 15,  1, 79)  ( 15,  1, 79)  ( 11,  1, 38)  ( 15,  1, 79)  ( 15,  1, 79)
  1  0.2453E-02  0  0.3289E-02  0  0.1929E-02  0  0.8370E-03  1  0.2126E-03
   ( 11,  1, 42)  ( 11,  1, 32)  ( 15,  1, 79)  ( 15,  1, 79)  ( 10,  1, 12)

 MAXIMUM RESIDUAL FOR EACH ITERATION (1 INDICATES THE FIRST INNER ITERATION):

    RESIDUAL       RESIDUAL       RESIDUAL       RESIDUAL       RESIDUAL    
   LAYER,ROW,COL  LAYER,ROW,COL  LAYER,ROW,COL  LAYER,ROW,COL  LAYER,ROW,COL
 ---------------------------------------------------------------------------
  1 -0.5396E+07  0 -0.3430E+07  0 -0.2271E+07  0  0.8790E+06  0  0.2947E+06
   ( 18,  1, 71)  ( 18,  1, 71)  ( 18,  1, 71)  ( 20,  1, 71)  ( 20,  1, 71)
  0  0.1554E+06  0 -0.9635E+05  0 -0.5415E+05  0 -0.3221E+05  0 -0.1624E+05
   ( 22,  1, 70)  ( 22,  1, 71)  ( 22,  1, 71)  ( 22,  1, 71)  ( 22,  1, 71)
  1 -0.2627E+05  0 -0.1596E+05  0  -7512.      0  -3797.      1  -3678.    
   ( 18,  1, 71)  ( 18,  1, 71)  ( 18,  1, 71)  ( 18,  1, 71)  ( 18,  1, 71)


 FLOW MODEL IS TRANSIENT
 FLOW MODEL CONTAINS CONSTANT-HEAD CELLS


 MAXIMUM STEPSIZE DURING WHICH ANY PARTICLE CANNOT MOVE MORE THAN ONE CELL
 =  2.548    (WHEN MIN. R.F.=1)  AT K=  20, I=   1, J=  70

 MAXIMUM STEPSIZE WHICH MEETS STABILITY CRITERION OF THE ADVECTION TERM
 (FOR PURE FINITE-DIFFERENCE OPTION, MIXELM=0) 
 =  1.970    (WHEN MIN. R.F.=1)  AT K=  22, I=   1, J=  71


 TOTAL NUMBER OF POINT SOURCES/SINKS PRESENT IN THE FLOW MODEL =    30

 MAXIMUM STEPSIZE WHICH MEETS STABILITY CRITERION OF THE SINK & SOURCE TERM
 =  49.24    (WHEN MIN. R.F.=1)  AT K=  16, I=   1, J=  90

 MAXIMUM STEPSIZE WHICH MEETS STABILITY CRITERION OF THE DISPERSION TERM
 = 0.7741    (WHEN MIN. R.F.=1)  AT K=  20, I=   1, J=  70
     1 CALLS TO GCG PACKAGE FOR TRANSPORT TIME STEP   3 IN FLOW TIME STEP   1 STRESS PERIOD   1
     5 TOTAL ITERATIONS
0WARNING: NUMERICAL OSCILLATION ENCOUNTERED
 ONE OR MORE CELL CONCENTRATIONS LESS THAN CRHOREF
 SMALLEST DENSITY =  0.100E+04
 AT CELL (I,J,K) = (   1,  69,  19)

 
 SOLVING FOR HEAD 


     3 CALLS TO PCG ROUTINE FOR TIME STEP   1 IN STRESS PERIOD    1
    14 TOTAL ITERATIONS

 MAXIMUM HEAD CHANGE FOR EACH ITERATION (1 INDICATES THE FIRST INNER ITERATION):

    HEAD CHANGE    HEAD CHANGE    HEAD CHANGE    HEAD CHANGE    HEAD CHANGE 
   LAYER,ROW,COL  LAYER,ROW,COL  LAYER,ROW,COL  LAYER,ROW,COL  LAYER,ROW,COL
 ---------------------------------------------------------------------------
  1  0.9829      0  0.2070      0  0.3113      0  0.2027      0  0.6606E-01
   ( 15,  1, 80)  ( 15,  1, 80)  ( 15,  1, 80)  ( 15,  1, 80)  ( 15,  1, 80)
  0 -0.2832E-01  0 -0.1654E-01  0  0.9867E-02  0  0.6266E-02  0  0.3532E-02
   ( 11,  1, 36)  ( 11,  1, 26)  ( 15,  1, 80)  ( 11,  1, 35)  ( 11,  1, 42)
  1  0.9395E-03  0  0.1419E-02  0  0.2872E-03  1 -0.2205E-03
   ( 11,  1, 26)  ( 11,  1, 26)  ( 10,  1, 12)  ( 10,  1, 12)

 MAXIMUM RESIDUAL FOR EACH ITERATION (1 INDICATES THE FIRST INNER ITERATION):

    RESIDUAL       RESIDUAL       RESIDUAL       RESIDUAL       RESIDUAL    
   LAYER,ROW,COL  LAYER,ROW,COL  LAYER,ROW,COL  LAYER,ROW,COL  LAYER,ROW,COL
 ---------------------------------------------------------------------------
  1 -0.2806E+07  0 -0.2054E+07  0 -0.8616E+06  0  0.2960E+06  0  0.1723E+06
   ( 23,  1, 70)  ( 23,  1, 70)  ( 23,  1, 70)  ( 22,  1, 70)  ( 22,  1, 70)
  0  0.1187E+06  0  0.6573E+05  0  0.2923E+05  0 -0.1243E+05  0  -5497.    
   ( 22,  1, 70)  ( 22,  1, 70)  ( 22,  1, 70)  ( 22,  1, 71)  ( 22,  1, 71)
  1 -0.1290E+05  0  -6884.      0  -5557.      1  -5363.    
   ( 18,  1, 71)  ( 18,  1, 72)  ( 18,  1, 72)  ( 18,  1, 72)


 FLOW MODEL IS TRANSIENT
 FLOW MODEL CONTAINS CONSTANT-HEAD CELLS


 MAXIMUM STEPSIZE DURING WHICH ANY PARTICLE CANNOT MOVE MORE THAN ONE CELL
 =  3.317    (WHEN MIN. R.F.=1)  AT K=  20, I=   1, J=  70

 MAXIMUM STEPSIZE WHICH MEETS STABILITY CRITERION OF THE ADVECTION TERM
 (FOR PURE FINITE-DIFFERENCE OPTION, MIXELM=0) 
 =  2.463    (WHEN MIN. R.F.=1)  AT K=  22, I=   1, J=  71


 TOTAL NUMBER OF POINT SOURCES/SINKS PRESENT IN THE FLOW MODEL =    30

 MAXIMUM STEPSIZE WHICH MEETS STABILITY CRITERION OF THE SINK & SOURCE TERM
 =  887.4    (WHEN MIN. R.F.=1)  AT K=  16, I=   1, J=  90

 MAXIMUM STEPSIZE WHICH MEETS STABILITY CRITERION OF THE DISPERSION TERM
 = 0.9378    (WHEN MIN. R.F.=1)  AT K=  20, I=   1, J=  70
     1 CALLS TO GCG PACKAGE FOR TRANSPORT TIME STEP   4 IN FLOW TIME STEP   1 STRESS PERIOD   1
     5 TOTAL ITERATIONS
0WARNING: NUMERICAL OSCILLATION ENCOUNTERED
 ONE OR MORE CELL CONCENTRATIONS LESS THAN CRHOREF
 SMALLEST DENSITY =  0.100E+04
 AT CELL (I,J,K) = (   1,  69,  19)

 
 SOLVING FOR HEAD 


     2 CALLS TO PCG ROUTINE FOR TIME STEP   1 IN STRESS PERIOD    1
    11 TOTAL ITERATIONS

 MAXIMUM HEAD CHANGE FOR EACH ITERATION (1 INDICATES THE FIRST INNER ITERATION):

    HEAD CHANGE    HEAD CHANGE    HEAD CHANGE    HEAD CHANGE    HEAD CHANGE 
   LAYER,ROW,COL  LAYER,ROW,COL  LAYER,ROW,COL  LAYER,ROW,COL  LAYER,ROW,COL
 ---------------------------------------------------------------------------
  1  0.5620      0  0.1146      0  0.1499      0 -0.1027      0 -0.4037E-01
   ( 15,  1, 78)  ( 15,  1, 78)  ( 15,  1, 78)  ( 11,  1, 71)  ( 11,  1, 35)
  0 -0.1619E-01  0  0.9910E-02  0  0.6367E-02  0  0.3311E-02  0  0.2017E-02
   ( 11,  1, 44)  ( 15,  1, 78)  ( 11,  1, 35)  ( 11,  1, 34)  ( 11,  1, 26)
  1  0.6584E-03
   ( 11,  1, 24)

 MAXIMUM RESIDUAL FOR EACH ITERATION (1 INDICATES THE FIRST INNER ITERATION):

    RESIDUAL       RESIDUAL       RESIDUAL       RESIDUAL       RESIDUAL    
   LAYER,ROW,COL  LAYER,ROW,COL  LAYER,ROW,COL  LAYER,ROW,COL  LAYER,ROW,COL
 ---------------------------------------------------------------------------
  1 -0.1917E+07  0 -0.1268E+07  0 -0.4249E+06  0  0.2284E+06  0  0.1379E+06
   ( 23,  1, 70)  ( 23,  1, 70)  ( 16,  1, 78)  ( 22,  1, 70)  ( 22,  1, 70)
  0  0.8469E+05  0  0.4137E+05  0  0.1257E+05  0  -6047.      0  -3759.    
   ( 22,  1, 70)  ( 22,  1, 70)  ( 22,  1, 70)  ( 22,  1, 71)  ( 17,  1, 77)
  1  -9562.    
   ( 18,  1, 72)


 FLOW MODEL IS TRANSIENT
 FLOW MODEL CONTAINS CONSTANT-HEAD CELLS


 MAXIMUM STEPSIZE DURING WHICH ANY PARTICLE CANNOT MOVE MORE THAN ONE CELL
 =  4.639    (WHEN MIN. R.F.=1)  AT K=  20, I=   1, J=  70

 MAXIMUM STEPSIZE WHICH MEETS STABILITY CRITERION OF THE ADVECTION TERM
 (FOR PURE FINITE-DIFFERENCE OPTION, MIXELM=0) 
 =  3.155    (WHEN MIN. R.F.=1)  AT K=  22, I=   1, J=  71


 TOTAL NUMBER OF POINT SOURCES/SINKS PRESENT IN THE FLOW MODEL =    30

 MAXIMUM STEPSIZE WHICH MEETS STABILITY CRITERION OF THE SINK & SOURCE TERM
 =  1437.    (WHEN MIN. R.F.=1)  AT K=   1, I=   1, J=   1

 MAXIMUM STEPSIZE WHICH MEETS STABILITY CRITERION OF THE DISPERSION TERM
 =  1.106    (WHEN MIN. R.F.=1)  AT K=  22, I=   1, J=  70
     1 CALLS TO GCG PACKAGE FOR TRANSPORT TIME STEP   5 IN FLOW TIME STEP   1 STRESS PERIOD   1
     5 TOTAL ITERATIONS
  MAXIMUM CONCENTRATION CHANGES FOR EACH ITERATION:
  MAX. CHANGE LAYER,ROW,COL MAX. CHANGE LAYER,ROW,COL MAX. CHANGE LAYER,ROW,COL MAX. CHANGE LAYER,ROW,COL MAX. CHANGE LAYER,ROW,COL
 ------------------------------------------------------------------------------------------------------------------------------------
   0.6041E-01 ( 18,  1, 72)  0.3621E-02 ( 23,  1, 70)  0.7215E-04 ( 23,  1, 70)  0.2245E-05 ( 21,  1, 70)  0.6715E-07 ( 21,  1, 70)
0WARNING: NUMERICAL OSCILLATION ENCOUNTERED
 ONE OR MORE CELL CONCENTRATIONS LESS THAN CRHOREF
 SMALLEST DENSITY =  0.100E+04
 AT CELL (I,J,K) = (   1,  69,  19)

 
 SOLVING FOR HEAD 


     2 CALLS TO PCG ROUTINE FOR TIME STEP   1 IN STRESS PERIOD    1
    11 TOTAL ITERATIONS

 MAXIMUM HEAD CHANGE FOR EACH ITERATION (1 INDICATES THE FIRST INNER ITERATION):

    HEAD CHANGE    HEAD CHANGE    HEAD CHANGE    HEAD CHANGE    HEAD CHANGE 
   LAYER,ROW,COL  LAYER,ROW,COL  LAYER,ROW,COL  LAYER,ROW,COL  LAYER,ROW,COL
 ---------------------------------------------------------------------------
  1  0.6444      0  0.7595E-01  0  0.1557      0 -0.6863E-01  0 -0.2547E-01
   ( 15,  1, 78)  ( 15,  1, 78)  ( 15,  1, 78)  ( 11,  1, 71)  ( 11,  1, 37)
  0  0.1381E-01  0  0.8703E-02  0  0.5981E-02  0  0.1511E-02  0  0.1040E-02
   ( 15,  1, 78)  ( 11,  1, 44)  ( 11,  1, 35)  ( 11,  1, 34)  ( 11,  1, 26)
  1  0.3686E-03
   ( 11,  1, 68)

 MAXIMUM RESIDUAL FOR EACH ITERATION (1 INDICATES THE FIRST INNER ITERATION):

    RESIDUAL       RESIDUAL       RESIDUAL       RESIDUAL       RESIDUAL    
   LAYER,ROW,COL  LAYER,ROW,COL  LAYER,ROW,COL  LAYER,ROW,COL  LAYER,ROW,COL
 ---------------------------------------------------------------------------
  1 -0.1213E+07  0 -0.8603E+06  0  0.2866E+06  0  0.1778E+06  0  0.9190E+05
   ( 23,  1, 70)  ( 23,  1, 70)  ( 22,  1, 70)  ( 22,  1, 70)  ( 22,  1, 70)
  0  0.4214E+05  0  0.1627E+05  0  -7363.      0  -4881.      0  -3147.    
   ( 22,  1, 70)  ( 22,  1, 70)  ( 17,  1, 77)  ( 17,  1, 77)  ( 17,  1, 77)
  1  -7030.    
   ( 18,  1, 72)


 FLOW MODEL IS TRANSIENT
 FLOW MODEL CONTAINS CONSTANT-HEAD CELLS


 MAXIMUM STEPSIZE DURING WHICH ANY PARTICLE CANNOT MOVE MORE THAN ONE CELL
 =  6.995    (WHEN MIN. R.F.=1)  AT K=  21, I=   1, J=  71

 MAXIMUM STEPSIZE WHICH MEETS STABILITY CRITERION OF THE ADVECTION TERM
 (FOR PURE FINITE-DIFFERENCE OPTION, MIXELM=0) 
 =  3.993    (WHEN MIN. R.F.=1)  AT K=  23, I=   1, J=  71


 TOTAL NUMBER OF POINT SOURCES/SINKS PRESENT IN THE FLOW MODEL =    30

 MAXIMUM STEPSIZE WHICH MEETS STABILITY CRITERION OF THE SINK & SOURCE TERM
 =  1437.    (WHEN MIN. R.F.=1)  AT K=   1, I=   1, J=   1

 MAXIMUM STEPSIZE WHICH MEETS STABILITY CRITERION OF THE DISPERSION TERM
 =  1.203    (WHEN MIN. R.F.=1)  AT K=  22, I=   1, J=  70
     1 CALLS TO GCG PACKAGE FOR TRANSPORT TIME STEP   6 IN FLOW TIME STEP   1 STRESS PERIOD   1
     5 TOTAL ITERATIONS
0WARNING: NUMERICAL OSCILLATION ENCOUNTERED
 ONE OR MORE CELL CONCENTRATIONS LESS THAN CRHOREF
 SMALLEST DENSITY =  0.100E+04
 AT CELL (I,J,K) = (   1,  69,  18)

 
 SOLVING FOR HEAD 


     2 CALLS TO PCG ROUTINE FOR TIME STEP   1 IN STRESS PERIOD    1
    11 TOTAL ITERATIONS

 MAXIMUM HEAD CHANGE FOR EACH ITERATION (1 INDICATES THE FIRST INNER ITERATION):

    HEAD CHANGE    HEAD CHANGE    HEAD CHANGE    HEAD CHANGE    HEAD CHANGE 
   LAYER,ROW,COL  LAYER,ROW,COL  LAYER,ROW,COL  LAYER,ROW,COL  LAYER,ROW,COL
 ---------------------------------------------------------------------------
  1  0.5604      0  0.6947E-01  0  0.1276      0 -0.4646E-01  0  0.1971E-01
   ( 15,  1, 78)  ( 15,  1, 78)  ( 15,  1, 78)  ( 11,  1, 71)  ( 15,  1, 78)
  0  0.1373E-01  0  0.1065E-01  0  0.2463E-02  0 -0.1712E-02  0  0.8664E-03
   ( 11,  1, 51)  ( 11,  1, 71)  ( 11,  1, 34)  ( 11,  1, 70)  ( 11,  1, 70)
  1 -0.4140E-03
   ( 11,  1, 27)

 MAXIMUM RESIDUAL FOR EACH ITERATION (1 INDICATES THE FIRST INNER ITERATION):

    RESIDUAL       RESIDUAL       RESIDUAL       RESIDUAL       RESIDUAL    
   LAYER,ROW,COL  LAYER,ROW,COL  LAYER,ROW,COL  LAYER,ROW,COL  LAYER,ROW,COL
 ---------------------------------------------------------------------------
  1 -0.9268E+06  0 -0.6332E+06  0  0.2022E+06  0  0.1217E+06  0 -0.3292E+05
   ( 23,  1, 70)  ( 16,  1, 78)  ( 22,  1, 70)  ( 22,  1, 70)  ( 22,  1, 71)
  0 -0.1542E+05  0   8748.      0   5933.      0   3449.      0  -1496.    
   ( 22,  1, 71)  ( 22,  1, 69)  ( 22,  1, 69)  ( 22,  1, 69)  ( 17,  1, 77)
  1  -4386.    
   ( 18,  1, 72)


 FLOW MODEL IS TRANSIENT
 FLOW MODEL CONTAINS CONSTANT-HEAD CELLS


 MAXIMUM STEPSIZE DURING WHICH ANY PARTICLE CANNOT MOVE MORE THAN ONE CELL
 =  6.832    (WHEN MIN. R.F.=1)  AT K=  21, I=   1, J=  69

 MAXIMUM STEPSIZE WHICH MEETS STABILITY CRITERION OF THE ADVECTION TERM
 (FOR PURE FINITE-DIFFERENCE OPTION, MIXELM=0) 
 =  4.820    (WHEN MIN. R.F.=1)  AT K=  23, I=   1, J=  69


 TOTAL NUMBER OF POINT SOURCES/SINKS PRESENT IN THE FLOW MODEL =    30

 MAXIMUM STEPSIZE WHICH MEETS STABILITY CRITERION OF THE SINK & SOURCE TERM
 =  1437.    (WHEN MIN. R.F.=1)  AT K=   1, I=   1, J=   1

 MAXIMUM STEPSIZE WHICH MEETS STABILITY CRITERION OF THE DISPERSION TERM
 =  1.301    (WHEN MIN. R.F.=1)  AT K=  22, I=   1, J=  70
     1 CALLS TO GCG PACKAGE FOR TRANSPORT TIME STEP   7 IN FLOW TIME STEP   1 STRESS PERIOD   1
     5 TOTAL ITERATIONS
0WARNING: NUMERICAL OSCILLATION ENCOUNTERED
 ONE OR MORE CELL CONCENTRATIONS LESS THAN CRHOREF
 SMALLEST DENSITY =  0.100E+04
 AT CELL (I,J,K) = (   1,  69,  18)

 
 SOLVING FOR HEAD 


     2 CALLS TO PCG ROUTINE FOR TIME STEP   1 IN STRESS PERIOD    1
    11 TOTAL ITERATIONS

 MAXIMUM HEAD CHANGE FOR EACH ITERATION (1 INDICATES THE FIRST INNER ITERATION):

    HEAD CHANGE    HEAD CHANGE    HEAD CHANGE    HEAD CHANGE    HEAD CHANGE 
   LAYER,ROW,COL  LAYER,ROW,COL  LAYER,ROW,COL  LAYER,ROW,COL  LAYER,ROW,COL
 ---------------------------------------------------------------------------
  1  0.4275      0  0.8638E-01  0  0.8061E-01  0 -0.3147E-01  0 -0.2030E-01
   ( 15,  1, 78)  ( 15,  1, 78)  ( 15,  1, 78)  ( 11,  1, 71)  ( 11,  1, 71)
  0  0.8597E-02  0  0.1039E-01  0  0.5374E-02  0  0.1413E-02  0 -0.1260E-02
   ( 11,  1, 71)  ( 11,  1, 71)  ( 11,  1, 71)  ( 11,  1, 71)  ( 11,  1, 71)
  1 -0.9104E-03
   ( 11,  1, 71)

 MAXIMUM RESIDUAL FOR EACH ITERATION (1 INDICATES THE FIRST INNER ITERATION):

    RESIDUAL       RESIDUAL       RESIDUAL       RESIDUAL       RESIDUAL    
   LAYER,ROW,COL  LAYER,ROW,COL  LAYER,ROW,COL  LAYER,ROW,COL  LAYER,ROW,COL
 ---------------------------------------------------------------------------
  1 -0.7719E+06  0 -0.4211E+06  0 -0.1491E+06  0 -0.9167E+05  0  0.1764E+05
   ( 16,  1, 78)  ( 16,  1, 78)  ( 22,  1, 71)  ( 23,  1, 69)  ( 22,  1, 69)
  0  0.1303E+05  0   8442.      0   5150.      0   2418.      0   765.8    
   ( 22,  1, 69)  ( 22,  1, 69)  ( 22,  1, 69)  ( 22,  1, 69)  ( 22,  1, 69)
  1  -2683.    
   ( 18,  1, 73)


 FLOW MODEL IS TRANSIENT
 FLOW MODEL CONTAINS CONSTANT-HEAD CELLS


 MAXIMUM STEPSIZE DURING WHICH ANY PARTICLE CANNOT MOVE MORE THAN ONE CELL
 =  7.057    (WHEN MIN. R.F.=1)  AT K=  21, I=   1, J=  69

 MAXIMUM STEPSIZE WHICH MEETS STABILITY CRITERION OF THE ADVECTION TERM
 (FOR PURE FINITE-DIFFERENCE OPTION, MIXELM=0) 
 =  4.862    (WHEN MIN. R.F.=1)  AT K=  23, I=   1, J=  69


 TOTAL NUMBER OF POINT SOURCES/SINKS PRESENT IN THE FLOW MODEL =    30

 MAXIMUM STEPSIZE WHICH MEETS STABILITY CRITERION OF THE SINK & SOURCE TERM
 =  1437.    (WHEN MIN. R.F.=1)  AT K=   1, I=   1, J=   1

 MAXIMUM STEPSIZE WHICH MEETS STABILITY CRITERION OF THE DISPERSION TERM
 =  1.410    (WHEN MIN. R.F.=1)  AT K=  22, I=   1, J=  70
     1 CALLS TO GCG PACKAGE FOR TRANSPORT TIME STEP   8 IN FLOW TIME STEP   1 STRESS PERIOD   1
     5 TOTAL ITERATIONS
0WARNING: NUMERICAL OSCILLATION ENCOUNTERED
 ONE OR MORE CELL CONCENTRATIONS LESS THAN CRHOREF
 SMALLEST DENSITY =  0.100E+04
 AT CELL (I,J,K) = (   1,  68,  20)

 
 SOLVING FOR HEAD 


     2 CALLS TO PCG ROUTINE FOR TIME STEP   1 IN STRESS PERIOD    1
    11 TOTAL ITERATIONS

 MAXIMUM HEAD CHANGE FOR EACH ITERATION (1 INDICATES THE FIRST INNER ITERATION):

    HEAD CHANGE    HEAD CHANGE    HEAD CHANGE    HEAD CHANGE    HEAD CHANGE 
   LAYER,ROW,COL  LAYER,ROW,COL  LAYER,ROW,COL  LAYER,ROW,COL  LAYER,ROW,COL
 ---------------------------------------------------------------------------
  1  0.2941      0  0.8373E-01  0  0.6123E-01  0 -0.2219E-01  0 -0.2337E-01
   ( 15,  1, 78)  ( 15,  1, 78)  ( 10,  1, 12)  ( 11,  1, 71)  ( 11,  1, 71)
  0  0.5470E-02  0  0.7368E-02  0  0.5563E-02  0  0.2243E-02  0  0.7644E-03
   ( 11,  1, 71)  ( 11,  1, 71)  ( 11,  1, 71)  ( 11,  1, 71)  ( 11,  1, 78)
  1 -0.8863E-03
   ( 11,  1, 71)

 MAXIMUM RESIDUAL FOR EACH ITERATION (1 INDICATES THE FIRST INNER ITERATION):

    RESIDUAL       RESIDUAL       RESIDUAL       RESIDUAL       RESIDUAL    
   LAYER,ROW,COL  LAYER,ROW,COL  LAYER,ROW,COL  LAYER,ROW,COL  LAYER,ROW,COL
 ---------------------------------------------------------------------------
  1 -0.8978E+06  0 -0.3664E+06  0  0.1427E+06  0  0.9464E+05  0  0.2413E+05
   ( 23,  1, 69)  ( 23,  1, 69)  ( 22,  1, 69)  ( 22,  1, 69)  ( 22,  1, 69)
  0   8572.      0   4371.      0   2861.      0   1780.      0  -811.9    
   ( 22,  1, 69)  ( 23,  1, 71)  ( 23,  1, 71)  ( 22,  1, 68)  ( 22,  1, 70)
  1  -1949.    
   ( 21,  1, 69)


 FLOW MODEL IS TRANSIENT
 FLOW MODEL CONTAINS CONSTANT-HEAD CELLS


 MAXIMUM STEPSIZE DURING WHICH ANY PARTICLE CANNOT MOVE MORE THAN ONE CELL
 =  8.344    (WHEN MIN. R.F.=1)  AT K=  21, I=   1, J=  69

 MAXIMUM STEPSIZE WHICH MEETS STABILITY CRITERION OF THE ADVECTION TERM
 (FOR PURE FINITE-DIFFERENCE OPTION, MIXELM=0) 
 =  5.371    (WHEN MIN. R.F.=1)  AT K=  23, I=   1, J=  69


 TOTAL NUMBER OF POINT SOURCES/SINKS PRESENT IN THE FLOW MODEL =    30

 MAXIMUM STEPSIZE WHICH MEETS STABILITY CRITERION OF THE SINK & SOURCE TERM
 =  1437.    (WHEN MIN. R.F.=1)  AT K=   1, I=   1, J=   1

 MAXIMUM STEPSIZE WHICH MEETS STABILITY CRITERION OF THE DISPERSION TERM
 =  1.543    (WHEN MIN. R.F.=1)  AT K=  22, I=   1, J=  70
     1 CALLS TO GCG PACKAGE FOR TRANSPORT TIME STEP   9 IN FLOW TIME STEP   1 STRESS PERIOD   1
     5 TOTAL ITERATIONS
0WARNING: NUMERICAL OSCILLATION ENCOUNTERED
 ONE OR MORE CELL CONCENTRATIONS LESS THAN CRHOREF
 SMALLEST DENSITY =  0.100E+04
 AT CELL (I,J,K) = (   1,  68,  19)

 
 SOLVING FOR HEAD 


     2 CALLS TO PCG ROUTINE FOR TIME STEP   1 IN STRESS PERIOD    1
    11 TOTAL ITERATIONS

 MAXIMUM HEAD CHANGE FOR EACH ITERATION (1 INDICATES THE FIRST INNER ITERATION):

    HEAD CHANGE    HEAD CHANGE    HEAD CHANGE    HEAD CHANGE    HEAD CHANGE 
   LAYER,ROW,COL  LAYER,ROW,COL  LAYER,ROW,COL  LAYER,ROW,COL  LAYER,ROW,COL
 ---------------------------------------------------------------------------
  1  0.1779      0 -0.5711E-01  0  0.5471E-01  0 -0.2094E-01  0 -0.2137E-01
   ( 15,  1, 78)  ( 10,  1, 12)  ( 10,  1, 12)  ( 11,  1, 71)  ( 11,  1, 71)
  0  0.4639E-02  0  0.6666E-02  0  0.5354E-02  0  0.1869E-02  0 -0.6184E-03
   ( 11,  1, 71)  ( 11,  1, 71)  ( 11,  1, 71)  ( 11,  1, 71)  ( 11,  1, 71)
  1 -0.7473E-03
   ( 11,  1, 71)

 MAXIMUM RESIDUAL FOR EACH ITERATION (1 INDICATES THE FIRST INNER ITERATION):

    RESIDUAL       RESIDUAL       RESIDUAL       RESIDUAL       RESIDUAL    
   LAYER,ROW,COL  LAYER,ROW,COL  LAYER,ROW,COL  LAYER,ROW,COL  LAYER,ROW,COL
 ---------------------------------------------------------------------------
  1 -0.8751E+06  0 -0.3529E+06  0  0.1433E+06  0  0.1003E+06  0  0.2538E+05
   ( 23,  1, 69)  ( 23,  1, 69)  ( 22,  1, 69)  ( 22,  1, 69)  ( 22,  1, 69)
  0   7064.      0   4334.      0   3022.      0   1926.      0   718.6    
   ( 22,  1, 69)  ( 22,  1, 68)  ( 22,  1, 68)  ( 22,  1, 68)  ( 22,  1, 68)
  1  -1730.    
   ( 20,  1, 69)


 FLOW MODEL IS TRANSIENT
 FLOW MODEL CONTAINS CONSTANT-HEAD CELLS


 MAXIMUM STEPSIZE DURING WHICH ANY PARTICLE CANNOT MOVE MORE THAN ONE CELL
 =  10.90    (WHEN MIN. R.F.=1)  AT K=  23, I=   1, J=  70

 MAXIMUM STEPSIZE WHICH MEETS STABILITY CRITERION OF THE ADVECTION TERM
 (FOR PURE FINITE-DIFFERENCE OPTION, MIXELM=0) 
 =  6.294    (WHEN MIN. R.F.=1)  AT K=  23, I=   1, J=  69


 TOTAL NUMBER OF POINT SOURCES/SINKS PRESENT IN THE FLOW MODEL =    30

 MAXIMUM STEPSIZE WHICH MEETS STABILITY CRITERION OF THE SINK & SOURCE TERM
 =  1437.    (WHEN MIN. R.F.=1)  AT K=   1, I=   1, J=   1

 MAXIMUM STEPSIZE WHICH MEETS STABILITY CRITERION OF THE DISPERSION TERM
 =  1.687    (WHEN MIN. R.F.=1)  AT K=  22, I=   1, J=  70
     1 CALLS TO GCG PACKAGE FOR TRANSPORT TIME STEP  10 IN FLOW TIME STEP   1 STRESS PERIOD   1
     5 TOTAL ITERATIONS
  MAXIMUM CONCENTRATION CHANGES FOR EACH ITERATION:
  MAX. CHANGE LAYER,ROW,COL MAX. CHANGE LAYER,ROW,COL MAX. CHANGE LAYER,ROW,COL MAX. CHANGE LAYER,ROW,COL MAX. CHANGE LAYER,ROW,COL
 ------------------------------------------------------------------------------------------------------------------------------------
   0.6979E-01 (  1,  1, 71)  0.6209E-02 ( 23,  1, 70)  0.1837E-03 ( 23,  1, 70)  0.9213E-05 ( 23,  1, 71)  0.2421E-06 ( 21,  1, 69)



 >>>>>>>>>>>>>>>>>>>>>>>>>>>>>>>>>>>>>>>>>>>>>>>>>>>>>>>FOR COMPONENT NO. 01<<<<<<<<<<<<<<<<<<<<<<<<<<<<<<<<<<<<<<<<<<<<<<<<<<<<<<<


                                            -------------------------------------------
                                                      TRANSPORT STEP NO.   10
                                            -------------------------------------------

 TOTAL ELAPSED TIME SINCE BEGINNING OF SIMULATION =   14.72599    D   
 .....................................................................

                     CUMMULATIVE MASS BUDGETS AT END OF TRANSPORT STEP   10, TIME STEP    1, STRESS PERIOD    1
                     ------------------------------------------------------------------------------------------

                                                             IN                           OUT
                                                      ----------------             ----------------
                               CONSTANT CONCENTRATION:    0.000000                    0.000000    
                                        CONSTANT HEAD:    50379.61                   -214540.8    
                                             RECHARGE:    0.000000                    0.000000    
                                MASS STORAGE (SOLUTE):    3008164.                   -2843996.    
                            ---------------------------------------------------------------------------
                                              [TOTAL]:    3059526.     KG            -3059526.     KG  

                                                          NET (IN - OUT):  -0.2759388E-01
                                                   DISCREPANCY (PERCENT):  -0.9019006E-06
0WARNING: NUMERICAL OSCILLATION ENCOUNTERED
 ONE OR MORE CELL CONCENTRATIONS LESS THAN CRHOREF
 SMALLEST DENSITY =  0.100E+04
 AT CELL (I,J,K) = (   1,  68,  19)

 
 SOLVING FOR HEAD 


     2 CALLS TO PCG ROUTINE FOR TIME STEP   1 IN STRESS PERIOD    1
    11 TOTAL ITERATIONS

 MAXIMUM HEAD CHANGE FOR EACH ITERATION (1 INDICATES THE FIRST INNER ITERATION):

    HEAD CHANGE    HEAD CHANGE    HEAD CHANGE    HEAD CHANGE    HEAD CHANGE 
   LAYER,ROW,COL  LAYER,ROW,COL  LAYER,ROW,COL  LAYER,ROW,COL  LAYER,ROW,COL
 ---------------------------------------------------------------------------
  1  0.1992      0 -0.5710E-01  0  0.5517E-01  0 -0.2196E-01  0 -0.2178E-01
   ( 15,  1, 79)  ( 10,  1, 12)  ( 10,  1, 12)  ( 11,  1, 71)  ( 11,  1, 71)
  0  0.3640E-02  0  0.7608E-02  0  0.5549E-02  0  0.1949E-02  0 -0.8736E-03
   ( 11,  1, 71)  ( 11,  1, 71)  ( 11,  1, 71)  ( 11,  1, 71)  ( 11,  1, 71)
  1 -0.6678E-03
   ( 11,  1, 71)

 MAXIMUM RESIDUAL FOR EACH ITERATION (1 INDICATES THE FIRST INNER ITERATION):

    RESIDUAL       RESIDUAL       RESIDUAL       RESIDUAL       RESIDUAL    
   LAYER,ROW,COL  LAYER,ROW,COL  LAYER,ROW,COL  LAYER,ROW,COL  LAYER,ROW,COL
 ---------------------------------------------------------------------------
  1 -0.8808E+06  0 -0.4138E+06  0  0.1297E+06  0  0.9338E+05  0  0.2505E+05
   ( 23,  1, 69)  ( 23,  1, 69)  ( 22,  1, 69)  ( 22,  1, 69)  ( 22,  1, 69)
  0   7079.      0   4695.      0   3284.      0   2146.      0   795.9    
   ( 22,  1, 68)  ( 22,  1, 68)  ( 22,  1, 68)  ( 22,  1, 68)  ( 22,  1, 68)
  1  -1620.    
   ( 20,  1, 69)


 FLOW MODEL IS TRANSIENT
 FLOW MODEL CONTAINS CONSTANT-HEAD CELLS


 MAXIMUM STEPSIZE DURING WHICH ANY PARTICLE CANNOT MOVE MORE THAN ONE CELL
 =  12.07    (WHEN MIN. R.F.=1)  AT K=  23, I=   1, J=  70

 MAXIMUM STEPSIZE WHICH MEETS STABILITY CRITERION OF THE ADVECTION TERM
 (FOR PURE FINITE-DIFFERENCE OPTION, MIXELM=0) 
 =  7.760    (WHEN MIN. R.F.=1)  AT K=  23, I=   1, J=  69


 TOTAL NUMBER OF POINT SOURCES/SINKS PRESENT IN THE FLOW MODEL =    30

 MAXIMUM STEPSIZE WHICH MEETS STABILITY CRITERION OF THE SINK & SOURCE TERM
 =  1437.    (WHEN MIN. R.F.=1)  AT K=   1, I=   1, J=   1

 MAXIMUM STEPSIZE WHICH MEETS STABILITY CRITERION OF THE DISPERSION TERM
 =  1.856    (WHEN MIN. R.F.=1)  AT K=  22, I=   1, J=  70
     1 CALLS TO GCG PACKAGE FOR TRANSPORT TIME STEP  11 IN FLOW TIME STEP   1 STRESS PERIOD   1
     5 TOTAL ITERATIONS
0WARNING: NUMERICAL OSCILLATION ENCOUNTERED
 ONE OR MORE CELL CONCENTRATIONS LESS THAN CRHOREF
 SMALLEST DENSITY =  0.100E+04
 AT CELL (I,J,K) = (   1,  68,  18)

 
 SOLVING FOR HEAD 


     2 CALLS TO PCG ROUTINE FOR TIME STEP   1 IN STRESS PERIOD    1
    11 TOTAL ITERATIONS

 MAXIMUM HEAD CHANGE FOR EACH ITERATION (1 INDICATES THE FIRST INNER ITERATION):

    HEAD CHANGE    HEAD CHANGE    HEAD CHANGE    HEAD CHANGE    HEAD CHANGE 
   LAYER,ROW,COL  LAYER,ROW,COL  LAYER,ROW,COL  LAYER,ROW,COL  LAYER,ROW,COL
 ---------------------------------------------------------------------------
  1  0.1889      0 -0.5908E-01  0  0.5781E-01  0 -0.2323E-01  0 -0.2438E-01
   ( 15,  1, 79)  ( 10,  1, 12)  ( 10,  1, 12)  ( 11,  1, 71)  ( 11,  1, 71)
  0 -0.3438E-02  0  0.9302E-02  0  0.5991E-02  0  0.2202E-02  0 -0.7803E-03
   ( 11,  1, 20)  ( 11,  1, 71)  ( 11,  1, 71)  ( 11,  1, 71)  ( 11,  1, 71)
  1 -0.6234E-03
   ( 11,  1, 71)

 MAXIMUM RESIDUAL FOR EACH ITERATION (1 INDICATES THE FIRST INNER ITERATION):

    RESIDUAL       RESIDUAL       RESIDUAL       RESIDUAL       RESIDUAL    
   LAYER,ROW,COL  LAYER,ROW,COL  LAYER,ROW,COL  LAYER,ROW,COL  LAYER,ROW,COL
 ---------------------------------------------------------------------------
  1 -0.8801E+06  0 -0.4841E+06  0  0.1030E+06  0  0.7803E+05  0  0.2564E+05
   ( 23,  1, 69)  ( 23,  1, 69)  ( 22,  1, 69)  ( 22,  1, 69)  ( 22,  1, 69)
  0   8512.      0   5146.      0   3530.      0   2400.      0   1091.    
   ( 22,  1, 68)  ( 22,  1, 68)  ( 22,  1, 68)  ( 22,  1, 68)  ( 22,  1, 68)
  1  -1201.    
   ( 19,  1, 72)


 FLOW MODEL IS TRANSIENT
 FLOW MODEL CONTAINS CONSTANT-HEAD CELLS


 MAXIMUM STEPSIZE DURING WHICH ANY PARTICLE CANNOT MOVE MORE THAN ONE CELL
 =  11.31    (WHEN MIN. R.F.=1)  AT K=  21, I=   1, J=  68

 MAXIMUM STEPSIZE WHICH MEETS STABILITY CRITERION OF THE ADVECTION TERM
 (FOR PURE FINITE-DIFFERENCE OPTION, MIXELM=0) 
 =  7.560    (WHEN MIN. R.F.=1)  AT K=  23, I=   1, J=  68


 TOTAL NUMBER OF POINT SOURCES/SINKS PRESENT IN THE FLOW MODEL =    30

 MAXIMUM STEPSIZE WHICH MEETS STABILITY CRITERION OF THE SINK & SOURCE TERM
 =  1437.    (WHEN MIN. R.F.=1)  AT K=   1, I=   1, J=   1

 MAXIMUM STEPSIZE WHICH MEETS STABILITY CRITERION OF THE DISPERSION TERM
 =  2.059    (WHEN MIN. R.F.=1)  AT K=  22, I=   1, J=  70
     1 CALLS TO GCG PACKAGE FOR TRANSPORT TIME STEP  12 IN FLOW TIME STEP   1 STRESS PERIOD   1
     6 TOTAL ITERATIONS
0WARNING: NUMERICAL OSCILLATION ENCOUNTERED
 ONE OR MORE CELL CONCENTRATIONS LESS THAN CRHOREF
 SMALLEST DENSITY =  0.100E+04
 AT CELL (I,J,K) = (   1,  69,   7)

 
 SOLVING FOR HEAD 


     2 CALLS TO PCG ROUTINE FOR TIME STEP   1 IN STRESS PERIOD    1
    11 TOTAL ITERATIONS

 MAXIMUM HEAD CHANGE FOR EACH ITERATION (1 INDICATES THE FIRST INNER ITERATION):

    HEAD CHANGE    HEAD CHANGE    HEAD CHANGE    HEAD CHANGE    HEAD CHANGE 
   LAYER,ROW,COL  LAYER,ROW,COL  LAYER,ROW,COL  LAYER,ROW,COL  LAYER,ROW,COL
 ---------------------------------------------------------------------------
  1  0.1589      0 -0.6392E-01  0  0.6207E-01  0 -0.2256E-01  0 -0.2366E-01
   ( 15,  1, 79)  ( 10,  1, 12)  ( 10,  1, 12)  ( 11,  1, 71)  ( 11,  1, 71)
  0 -0.3763E-02  0  0.8771E-02  0  0.6363E-02  0  0.2224E-02  0 -0.4742E-03
   ( 11,  1, 71)  ( 11,  1, 71)  ( 11,  1, 71)  ( 11,  1, 71)  ( 11,  1, 48)
  1 -0.5179E-03
   ( 11,  1, 71)

 MAXIMUM RESIDUAL FOR EACH ITERATION (1 INDICATES THE FIRST INNER ITERATION):

    RESIDUAL       RESIDUAL       RESIDUAL       RESIDUAL       RESIDUAL    
   LAYER,ROW,COL  LAYER,ROW,COL  LAYER,ROW,COL  LAYER,ROW,COL  LAYER,ROW,COL
 ---------------------------------------------------------------------------
  1 -0.8642E+06  0 -0.4861E+06  0 -0.7509E+05  0 -0.5564E+05  0 -0.2781E+05
   ( 23,  1, 69)  ( 23,  1, 69)  ( 22,  1, 70)  ( 22,  1, 70)  ( 22,  1, 70)
  0  0.1079E+05  0   4454.      0   2801.      0   1802.      0   967.7    
   ( 22,  1, 68)  ( 22,  1, 68)  ( 23,  1, 70)  ( 23,  1, 70)  ( 23,  1, 70)
  1  -1196.    
   ( 19,  1, 73)


 FLOW MODEL IS TRANSIENT
 FLOW MODEL CONTAINS CONSTANT-HEAD CELLS


 MAXIMUM STEPSIZE DURING WHICH ANY PARTICLE CANNOT MOVE MORE THAN ONE CELL
 =  11.62    (WHEN MIN. R.F.=1)  AT K=  21, I=   1, J=  68

 MAXIMUM STEPSIZE WHICH MEETS STABILITY CRITERION OF THE ADVECTION TERM
 (FOR PURE FINITE-DIFFERENCE OPTION, MIXELM=0) 
 =  7.443    (WHEN MIN. R.F.=1)  AT K=  23, I=   1, J=  68


 TOTAL NUMBER OF POINT SOURCES/SINKS PRESENT IN THE FLOW MODEL =    30

 MAXIMUM STEPSIZE WHICH MEETS STABILITY CRITERION OF THE SINK & SOURCE TERM
 =  1437.    (WHEN MIN. R.F.=1)  AT K=   1, I=   1, J=   1

 MAXIMUM STEPSIZE WHICH MEETS STABILITY CRITERION OF THE DISPERSION TERM
 =  2.140    (WHEN MIN. R.F.=1)  AT K=  22, I=   1, J=  69
     1 CALLS TO GCG PACKAGE FOR TRANSPORT TIME STEP  13 IN FLOW TIME STEP   1 STRESS PERIOD   1
     5 TOTAL ITERATIONS
0WARNING: NUMERICAL OSCILLATION ENCOUNTERED
 ONE OR MORE CELL CONCENTRATIONS LESS THAN CRHOREF
 SMALLEST DENSITY =  0.100E+04
 AT CELL (I,J,K) = (   1,  67,  20)

 
 SOLVING FOR HEAD 


     2 CALLS TO PCG ROUTINE FOR TIME STEP   1 IN STRESS PERIOD    1
    11 TOTAL ITERATIONS

 MAXIMUM HEAD CHANGE FOR EACH ITERATION (1 INDICATES THE FIRST INNER ITERATION):

    HEAD CHANGE    HEAD CHANGE    HEAD CHANGE    HEAD CHANGE    HEAD CHANGE 
   LAYER,ROW,COL  LAYER,ROW,COL  LAYER,ROW,COL  LAYER,ROW,COL  LAYER,ROW,COL
 ---------------------------------------------------------------------------
  1  0.1054      0 -0.5544E-01  0  0.5366E-01  0 -0.1996E-01  0 -0.1969E-01
   ( 15,  1, 79)  ( 10,  1, 12)  ( 10,  1, 12)  ( 11,  1, 71)  ( 11,  1, 71)
  0 -0.4987E-02  0  0.7092E-02  0  0.5508E-02  0  0.1890E-02  0 -0.4189E-03
   ( 11,  1, 71)  ( 11,  1, 71)  ( 11,  1, 71)  ( 11,  1, 71)  ( 11,  1, 70)
  1 -0.4220E-03
   ( 11,  1, 71)

 MAXIMUM RESIDUAL FOR EACH ITERATION (1 INDICATES THE FIRST INNER ITERATION):

    RESIDUAL       RESIDUAL       RESIDUAL       RESIDUAL       RESIDUAL    
   LAYER,ROW,COL  LAYER,ROW,COL  LAYER,ROW,COL  LAYER,ROW,COL  LAYER,ROW,COL
 ---------------------------------------------------------------------------
  1 -0.7166E+06  0 -0.4226E+06  0  0.8303E+05  0  0.6274E+05  0  0.3369E+05
   ( 23,  1, 68)  ( 23,  1, 68)  ( 22,  1, 68)  ( 22,  1, 68)  ( 22,  1, 68)
  0  0.1181E+05  0   3214.      0   2111.      0   1529.      0   893.0    
   ( 22,  1, 68)  ( 23,  1, 70)  ( 23,  1, 70)  ( 22,  1, 67)  ( 22,  1, 67)
  1  -1142.    
   ( 20,  1, 68)


 FLOW MODEL IS TRANSIENT
 FLOW MODEL CONTAINS CONSTANT-HEAD CELLS


 MAXIMUM STEPSIZE DURING WHICH ANY PARTICLE CANNOT MOVE MORE THAN ONE CELL
 =  13.72    (WHEN MIN. R.F.=1)  AT K=  21, I=   1, J=  68

 MAXIMUM STEPSIZE WHICH MEETS STABILITY CRITERION OF THE ADVECTION TERM
 (FOR PURE FINITE-DIFFERENCE OPTION, MIXELM=0) 
 =  8.081    (WHEN MIN. R.F.=1)  AT K=  23, I=   1, J=  68


 TOTAL NUMBER OF POINT SOURCES/SINKS PRESENT IN THE FLOW MODEL =    30

 MAXIMUM STEPSIZE WHICH MEETS STABILITY CRITERION OF THE SINK & SOURCE TERM
 =  1437.    (WHEN MIN. R.F.=1)  AT K=   1, I=   1, J=   1

 MAXIMUM STEPSIZE WHICH MEETS STABILITY CRITERION OF THE DISPERSION TERM
 =  2.236    (WHEN MIN. R.F.=1)  AT K=  22, I=   1, J=  69
     1 CALLS TO GCG PACKAGE FOR TRANSPORT TIME STEP  14 IN FLOW TIME STEP   1 STRESS PERIOD   1
     5 TOTAL ITERATIONS
0WARNING: NUMERICAL OSCILLATION ENCOUNTERED
 ONE OR MORE CELL CONCENTRATIONS LESS THAN CRHOREF
 SMALLEST DENSITY =  0.100E+04
 AT CELL (I,J,K) = (   1,  67,  19)

 
 SOLVING FOR HEAD 


     2 CALLS TO PCG ROUTINE FOR TIME STEP   1 IN STRESS PERIOD    1
    11 TOTAL ITERATIONS

 MAXIMUM HEAD CHANGE FOR EACH ITERATION (1 INDICATES THE FIRST INNER ITERATION):

    HEAD CHANGE    HEAD CHANGE    HEAD CHANGE    HEAD CHANGE    HEAD CHANGE 
   LAYER,ROW,COL  LAYER,ROW,COL  LAYER,ROW,COL  LAYER,ROW,COL  LAYER,ROW,COL
 ---------------------------------------------------------------------------
  1  0.9455E-01  0 -0.4941E-01  0  0.4810E-01  0 -0.1884E-01  0 -0.1869E-01
   ( 15,  1, 80)  ( 10,  1, 12)  ( 10,  1, 12)  ( 11,  1, 71)  ( 11,  1, 71)
  0 -0.3910E-02  0  0.7030E-02  0  0.5006E-02  0  0.1772E-02  0 -0.4149E-03
   ( 11,  1, 71)  ( 11,  1, 71)  ( 11,  1, 71)  ( 11,  1, 71)  ( 11,  1, 48)
  1 -0.4414E-03
   ( 11,  1, 71)

 MAXIMUM RESIDUAL FOR EACH ITERATION (1 INDICATES THE FIRST INNER ITERATION):

    RESIDUAL       RESIDUAL       RESIDUAL       RESIDUAL       RESIDUAL    
   LAYER,ROW,COL  LAYER,ROW,COL  LAYER,ROW,COL  LAYER,ROW,COL  LAYER,ROW,COL
 ---------------------------------------------------------------------------
  1 -0.7327E+06  0 -0.4479E+06  0  0.8467E+05  0  0.6534E+05  0  0.3301E+05
   ( 23,  1, 68)  ( 23,  1, 68)  ( 22,  1, 68)  ( 22,  1, 68)  ( 22,  1, 68)
  0  0.1083E+05  0  -3647.      0  -2395.      0   1616.      0   946.1    
   ( 22,  1, 68)  ( 22,  1, 70)  ( 22,  1, 70)  ( 22,  1, 67)  ( 22,  1, 67)
  1  -1263.    
   ( 20,  1, 68)


 FLOW MODEL IS TRANSIENT
 FLOW MODEL CONTAINS CONSTANT-HEAD CELLS


 MAXIMUM STEPSIZE DURING WHICH ANY PARTICLE CANNOT MOVE MORE THAN ONE CELL
 =  14.67    (WHEN MIN. R.F.=1)  AT K=  23, I=   1, J=  69

 MAXIMUM STEPSIZE WHICH MEETS STABILITY CRITERION OF THE ADVECTION TERM
 (FOR PURE FINITE-DIFFERENCE OPTION, MIXELM=0) 
 =  9.254    (WHEN MIN. R.F.=1)  AT K=  23, I=   1, J=  68


 TOTAL NUMBER OF POINT SOURCES/SINKS PRESENT IN THE FLOW MODEL =    30

 MAXIMUM STEPSIZE WHICH MEETS STABILITY CRITERION OF THE SINK & SOURCE TERM
 =  1437.    (WHEN MIN. R.F.=1)  AT K=   1, I=   1, J=   1

 MAXIMUM STEPSIZE WHICH MEETS STABILITY CRITERION OF THE DISPERSION TERM
 =  2.361    (WHEN MIN. R.F.=1)  AT K=  22, I=   1, J=  69
     1 CALLS TO GCG PACKAGE FOR TRANSPORT TIME STEP  15 IN FLOW TIME STEP   1 STRESS PERIOD   1
     5 TOTAL ITERATIONS
  MAXIMUM CONCENTRATION CHANGES FOR EACH ITERATION:
  MAX. CHANGE LAYER,ROW,COL MAX. CHANGE LAYER,ROW,COL MAX. CHANGE LAYER,ROW,COL MAX. CHANGE LAYER,ROW,COL MAX. CHANGE LAYER,ROW,COL
 ------------------------------------------------------------------------------------------------------------------------------------
   0.8306E-01 (  1,  1, 71)  0.6305E-02 ( 23,  1, 69)  0.2338E-03 ( 23,  1, 69)  0.1083E-04 ( 23,  1, 69)  0.4204E-06 ( 23,  1, 69)
0WARNING: NUMERICAL OSCILLATION ENCOUNTERED
 ONE OR MORE CELL CONCENTRATIONS LESS THAN CRHOREF
 SMALLEST DENSITY =  0.100E+04
 AT CELL (I,J,K) = (   1,  67,  19)

 
 SOLVING FOR HEAD 


     2 CALLS TO PCG ROUTINE FOR TIME STEP   1 IN STRESS PERIOD    1
    11 TOTAL ITERATIONS

 MAXIMUM HEAD CHANGE FOR EACH ITERATION (1 INDICATES THE FIRST INNER ITERATION):

    HEAD CHANGE    HEAD CHANGE    HEAD CHANGE    HEAD CHANGE    HEAD CHANGE 
   LAYER,ROW,COL  LAYER,ROW,COL  LAYER,ROW,COL  LAYER,ROW,COL  LAYER,ROW,COL
 ---------------------------------------------------------------------------
  1  0.8568E-01  0 -0.4833E-01  0  0.4758E-01  0 -0.1840E-01  0 -0.1866E-01
   ( 15,  1, 80)  ( 10,  1, 12)  ( 10,  1, 12)  ( 11,  1, 71)  ( 11,  1, 71)
  0 -0.4645E-02  0  0.7319E-02  0  0.5071E-02  0 -0.1946E-02  0  0.4485E-03
   ( 11,  1, 71)  ( 11,  1, 71)  ( 11,  1, 71)  ( 11,  1, 70)  ( 11,  1, 72)
  1 -0.4317E-03
   ( 11,  1, 71)

 MAXIMUM RESIDUAL FOR EACH ITERATION (1 INDICATES THE FIRST INNER ITERATION):

    RESIDUAL       RESIDUAL       RESIDUAL       RESIDUAL       RESIDUAL    
   LAYER,ROW,COL  LAYER,ROW,COL  LAYER,ROW,COL  LAYER,ROW,COL  LAYER,ROW,COL
 ---------------------------------------------------------------------------
  1 -0.7630E+06  0 -0.4915E+06  0  0.7874E+05  0  0.6204E+05  0  0.3267E+05
   ( 23,  1, 68)  ( 23,  1, 68)  ( 22,  1, 68)  ( 22,  1, 68)  ( 22,  1, 68)
  0   9998.      0  -3747.      0  -2526.      0   1753.      0   1079.    
   ( 22,  1, 68)  ( 22,  1, 70)  ( 22,  1, 70)  ( 22,  1, 67)  ( 22,  1, 67)
  1  -1011.    
   ( 19,  1, 73)


 FLOW MODEL IS TRANSIENT
 FLOW MODEL CONTAINS CONSTANT-HEAD CELLS


 MAXIMUM STEPSIZE DURING WHICH ANY PARTICLE CANNOT MOVE MORE THAN ONE CELL
 =  15.76    (WHEN MIN. R.F.=1)  AT K=  23, I=   1, J=  69

 MAXIMUM STEPSIZE WHICH MEETS STABILITY CRITERION OF THE ADVECTION TERM
 (FOR PURE FINITE-DIFFERENCE OPTION, MIXELM=0) 
 =  11.06    (WHEN MIN. R.F.=1)  AT K=  23, I=   1, J=  68


 TOTAL NUMBER OF POINT SOURCES/SINKS PRESENT IN THE FLOW MODEL =    30

 MAXIMUM STEPSIZE WHICH MEETS STABILITY CRITERION OF THE SINK & SOURCE TERM
 =  1425.    (WHEN MIN. R.F.=1)  AT K=   4, I=   1, J=  75

 MAXIMUM STEPSIZE WHICH MEETS STABILITY CRITERION OF THE DISPERSION TERM
 =  2.518    (WHEN MIN. R.F.=1)  AT K=  22, I=   1, J=  69
     1 CALLS TO GCG PACKAGE FOR TRANSPORT TIME STEP  16 IN FLOW TIME STEP   1 STRESS PERIOD   1
     5 TOTAL ITERATIONS
0WARNING: NUMERICAL OSCILLATION ENCOUNTERED
 ONE OR MORE CELL CONCENTRATIONS LESS THAN CRHOREF
 SMALLEST DENSITY =  0.100E+04
 AT CELL (I,J,K) = (   1,  69,   7)

 
 SOLVING FOR HEAD 


     2 CALLS TO PCG ROUTINE FOR TIME STEP   1 IN STRESS PERIOD    1
    11 TOTAL ITERATIONS

 MAXIMUM HEAD CHANGE FOR EACH ITERATION (1 INDICATES THE FIRST INNER ITERATION):

    HEAD CHANGE    HEAD CHANGE    HEAD CHANGE    HEAD CHANGE    HEAD CHANGE 
   LAYER,ROW,COL  LAYER,ROW,COL  LAYER,ROW,COL  LAYER,ROW,COL  LAYER,ROW,COL
 ---------------------------------------------------------------------------
  1  0.7189E-01  0 -0.4915E-01  0  0.4918E-01  0 -0.1813E-01  0 -0.1864E-01
   ( 15,  1, 80)  (  9,  1, 12)  ( 10,  1, 12)  ( 11,  1, 71)  ( 11,  1, 71)
  0 -0.7497E-02  0  0.7991E-02  0  0.5184E-02  0 -0.2301E-02  0 -0.5761E-03
   ( 11,  1, 71)  ( 11,  1, 71)  ( 11,  1, 71)  ( 11,  1, 70)  ( 11,  1, 71)
  1 -0.3560E-03
   ( 11,  1, 71)

 MAXIMUM RESIDUAL FOR EACH ITERATION (1 INDICATES THE FIRST INNER ITERATION):

    RESIDUAL       RESIDUAL       RESIDUAL       RESIDUAL       RESIDUAL    
   LAYER,ROW,COL  LAYER,ROW,COL  LAYER,ROW,COL  LAYER,ROW,COL  LAYER,ROW,COL
 ---------------------------------------------------------------------------
  1 -0.7841E+06  0 -0.5318E+06  0  0.6233E+05  0  0.5082E+05  0  0.3047E+05
   ( 23,  1, 68)  ( 23,  1, 68)  ( 22,  1, 68)  ( 22,  1, 68)  ( 22,  1, 68)
  0   8911.      0   3777.      0   2512.      0   1805.      0   1114.    
   ( 22,  1, 68)  ( 22,  1, 67)  ( 23,  1, 69)  ( 22,  1, 67)  ( 22,  1, 67)
  1   936.7    
   ( 22,  1, 67)


 FLOW MODEL IS TRANSIENT
 FLOW MODEL CONTAINS CONSTANT-HEAD CELLS


 MAXIMUM STEPSIZE DURING WHICH ANY PARTICLE CANNOT MOVE MORE THAN ONE CELL
 =  15.63    (WHEN MIN. R.F.=1)  AT K=  21, I=   1, J=  67

 MAXIMUM STEPSIZE WHICH MEETS STABILITY CRITERION OF THE ADVECTION TERM
 (FOR PURE FINITE-DIFFERENCE OPTION, MIXELM=0) 
 =  10.23    (WHEN MIN. R.F.=1)  AT K=  23, I=   1, J=  67


 TOTAL NUMBER OF POINT SOURCES/SINKS PRESENT IN THE FLOW MODEL =    30

 MAXIMUM STEPSIZE WHICH MEETS STABILITY CRITERION OF THE SINK & SOURCE TERM
 =  1337.    (WHEN MIN. R.F.=1)  AT K=   4, I=   1, J=  75

 MAXIMUM STEPSIZE WHICH MEETS STABILITY CRITERION OF THE DISPERSION TERM
 =  2.707    (WHEN MIN. R.F.=1)  AT K=  22, I=   1, J=  69
     1 CALLS TO GCG PACKAGE FOR TRANSPORT TIME STEP  17 IN FLOW TIME STEP   1 STRESS PERIOD   1
     6 TOTAL ITERATIONS
0WARNING: NUMERICAL OSCILLATION ENCOUNTERED
 ONE OR MORE CELL CONCENTRATIONS LESS THAN CRHOREF
 SMALLEST DENSITY =  0.100E+04
 AT CELL (I,J,K) = (   1,  69,   7)

 
 SOLVING FOR HEAD 


     2 CALLS TO PCG ROUTINE FOR TIME STEP   1 IN STRESS PERIOD    1
    11 TOTAL ITERATIONS

 MAXIMUM HEAD CHANGE FOR EACH ITERATION (1 INDICATES THE FIRST INNER ITERATION):

    HEAD CHANGE    HEAD CHANGE    HEAD CHANGE    HEAD CHANGE    HEAD CHANGE 
   LAYER,ROW,COL  LAYER,ROW,COL  LAYER,ROW,COL  LAYER,ROW,COL  LAYER,ROW,COL
 ---------------------------------------------------------------------------
  1  0.6694E-01  0 -0.5358E-01  0  0.5300E-01  0 -0.1880E-01  0 -0.1740E-01
   ( 15,  1, 81)  (  9,  1, 12)  ( 10,  1, 12)  ( 11,  1, 71)  ( 11,  1, 71)
  0 -0.8570E-02  0  0.6831E-02  0  0.5351E-02  0 -0.2373E-02  0  0.5312E-03
   ( 11,  1, 71)  ( 11,  1, 71)  ( 11,  1, 71)  ( 11,  1, 70)  ( 11,  1, 72)
  1 -0.3617E-03
   ( 11,  1, 71)

 MAXIMUM RESIDUAL FOR EACH ITERATION (1 INDICATES THE FIRST INNER ITERATION):

    RESIDUAL       RESIDUAL       RESIDUAL       RESIDUAL       RESIDUAL    
   LAYER,ROW,COL  LAYER,ROW,COL  LAYER,ROW,COL  LAYER,ROW,COL  LAYER,ROW,COL
 ---------------------------------------------------------------------------
  1 -0.7721E+06  0 -0.5078E+06  0 -0.4957E+05  0 -0.3778E+05  0 -0.2466E+05
   ( 23,  1, 68)  ( 23,  1, 68)  ( 22,  1, 69)  ( 22,  1, 69)  ( 22,  1, 69)
  0  0.1078E+05  0   4538.      0   2432.      0   1561.      0   995.5    
   ( 22,  1, 67)  ( 22,  1, 67)  ( 23,  1, 69)  ( 23,  1, 69)  ( 23,  1, 69)
  1  -865.6    
   ( 19,  1, 74)


 FLOW MODEL IS TRANSIENT
 FLOW MODEL CONTAINS CONSTANT-HEAD CELLS


 MAXIMUM STEPSIZE DURING WHICH ANY PARTICLE CANNOT MOVE MORE THAN ONE CELL
 =  16.15    (WHEN MIN. R.F.=1)  AT K=  21, I=   1, J=  67

 MAXIMUM STEPSIZE WHICH MEETS STABILITY CRITERION OF THE ADVECTION TERM
 (FOR PURE FINITE-DIFFERENCE OPTION, MIXELM=0) 
 =  10.07    (WHEN MIN. R.F.=1)  AT K=  23, I=   1, J=  67


 TOTAL NUMBER OF POINT SOURCES/SINKS PRESENT IN THE FLOW MODEL =    30

 MAXIMUM STEPSIZE WHICH MEETS STABILITY CRITERION OF THE SINK & SOURCE TERM
 =  1250.    (WHEN MIN. R.F.=1)  AT K=   4, I=   1, J=  75

 MAXIMUM STEPSIZE WHICH MEETS STABILITY CRITERION OF THE DISPERSION TERM
 =  2.892    (WHEN MIN. R.F.=1)  AT K=  22, I=   1, J=  68
     1 CALLS TO GCG PACKAGE FOR TRANSPORT TIME STEP  18 IN FLOW TIME STEP   1 STRESS PERIOD   1
     5 TOTAL ITERATIONS
0WARNING: NUMERICAL OSCILLATION ENCOUNTERED
 ONE OR MORE CELL CONCENTRATIONS LESS THAN CRHOREF
 SMALLEST DENSITY =  0.100E+04
 AT CELL (I,J,K) = (   1,  69,   7)

 
 SOLVING FOR HEAD 


     2 CALLS TO PCG ROUTINE FOR TIME STEP   1 IN STRESS PERIOD    1
    11 TOTAL ITERATIONS

 MAXIMUM HEAD CHANGE FOR EACH ITERATION (1 INDICATES THE FIRST INNER ITERATION):

    HEAD CHANGE    HEAD CHANGE    HEAD CHANGE    HEAD CHANGE    HEAD CHANGE 
   LAYER,ROW,COL  LAYER,ROW,COL  LAYER,ROW,COL  LAYER,ROW,COL  LAYER,ROW,COL
 ---------------------------------------------------------------------------
  1  0.5087E-01  0 -0.4527E-01  0  0.4479E-01  0 -0.1674E-01  0 -0.1542E-01
   ( 15,  1, 81)  ( 10,  1, 12)  ( 10,  1, 12)  ( 11,  1, 71)  ( 11,  1, 71)
  0 -0.6495E-02  0  0.6134E-02  0  0.4533E-02  0 -0.2044E-02  0  0.4580E-03
   ( 11,  1, 71)  ( 11,  1, 71)  ( 11,  1, 71)  ( 11,  1, 70)  ( 11,  1, 72)
  1 -0.2977E-03
   ( 11,  1, 71)

 MAXIMUM RESIDUAL FOR EACH ITERATION (1 INDICATES THE FIRST INNER ITERATION):

    RESIDUAL       RESIDUAL       RESIDUAL       RESIDUAL       RESIDUAL    
   LAYER,ROW,COL  LAYER,ROW,COL  LAYER,ROW,COL  LAYER,ROW,COL  LAYER,ROW,COL
 ---------------------------------------------------------------------------
  1 -0.6132E+06  0 -0.3989E+06  0  0.5866E+05  0  0.4564E+05  0  0.2887E+05
   ( 23,  1, 67)  ( 23,  1, 67)  ( 22,  1, 67)  ( 22,  1, 67)  ( 22,  1, 67)
  0  0.1140E+05  0   4095.      0   1979.      0   1304.      0   844.3    
   ( 22,  1, 67)  ( 22,  1, 67)  ( 23,  1, 69)  ( 23,  1, 69)  ( 23,  1, 69)
  1  -897.8    
   ( 20,  1, 67)


 FLOW MODEL IS TRANSIENT
 FLOW MODEL CONTAINS CONSTANT-HEAD CELLS


 MAXIMUM STEPSIZE DURING WHICH ANY PARTICLE CANNOT MOVE MORE THAN ONE CELL
 =  17.94    (WHEN MIN. R.F.=1)  AT K=  23, I=   1, J=  68

 MAXIMUM STEPSIZE WHICH MEETS STABILITY CRITERION OF THE ADVECTION TERM
 (FOR PURE FINITE-DIFFERENCE OPTION, MIXELM=0) 
 =  10.85    (WHEN MIN. R.F.=1)  AT K=  23, I=   1, J=  67


 TOTAL NUMBER OF POINT SOURCES/SINKS PRESENT IN THE FLOW MODEL =    30

 MAXIMUM STEPSIZE WHICH MEETS STABILITY CRITERION OF THE SINK & SOURCE TERM
 =  1183.    (WHEN MIN. R.F.=1)  AT K=   4, I=   1, J=  75

 MAXIMUM STEPSIZE WHICH MEETS STABILITY CRITERION OF THE DISPERSION TERM
 =  2.959    (WHEN MIN. R.F.=1)  AT K=  22, I=   1, J=  68
     1 CALLS TO GCG PACKAGE FOR TRANSPORT TIME STEP  19 IN FLOW TIME STEP   1 STRESS PERIOD   1
     5 TOTAL ITERATIONS
0WARNING: NUMERICAL OSCILLATION ENCOUNTERED
 ONE OR MORE CELL CONCENTRATIONS LESS THAN CRHOREF
 SMALLEST DENSITY =  0.100E+04
 AT CELL (I,J,K) = (   1,  69,   7)

 
 SOLVING FOR HEAD 


     2 CALLS TO PCG ROUTINE FOR TIME STEP   1 IN STRESS PERIOD    1
    11 TOTAL ITERATIONS

 MAXIMUM HEAD CHANGE FOR EACH ITERATION (1 INDICATES THE FIRST INNER ITERATION):

    HEAD CHANGE    HEAD CHANGE    HEAD CHANGE    HEAD CHANGE    HEAD CHANGE 
   LAYER,ROW,COL  LAYER,ROW,COL  LAYER,ROW,COL  LAYER,ROW,COL  LAYER,ROW,COL
 ---------------------------------------------------------------------------
  1  0.4855E-01  0 -0.4077E-01  0  0.4062E-01  0 -0.1560E-01  0 -0.1494E-01
   ( 15,  1, 82)  (  9,  1, 12)  ( 10,  1, 12)  ( 11,  1, 71)  ( 11,  1, 71)
  0  0.5758E-02  0  0.6645E-02  0  0.3885E-02  0 -0.1919E-02  0 -0.4722E-03
   ( 11,  1, 70)  ( 11,  1, 71)  ( 11,  1, 71)  ( 11,  1, 70)  ( 11,  1, 71)
  1 -0.2415E-03
   ( 11,  1, 71)

 MAXIMUM RESIDUAL FOR EACH ITERATION (1 INDICATES THE FIRST INNER ITERATION):

    RESIDUAL       RESIDUAL       RESIDUAL       RESIDUAL       RESIDUAL    
   LAYER,ROW,COL  LAYER,ROW,COL  LAYER,ROW,COL  LAYER,ROW,COL  LAYER,ROW,COL
 ---------------------------------------------------------------------------
  1 -0.6365E+06  0 -0.4135E+06  0  0.6046E+05  0  0.4779E+05  0  0.2872E+05
   ( 23,  1, 67)  ( 23,  1, 67)  ( 22,  1, 67)  ( 22,  1, 67)  ( 22,  1, 67)
  0  0.1008E+05  0   3552.      0   1859.      0   1260.      0   828.1    
   ( 22,  1, 67)  ( 22,  1, 67)  ( 23,  1, 69)  ( 22,  1, 66)  ( 22,  1, 66)
  1  -972.7    
   ( 20,  1, 67)


 FLOW MODEL IS TRANSIENT
 FLOW MODEL CONTAINS CONSTANT-HEAD CELLS


 MAXIMUM STEPSIZE DURING WHICH ANY PARTICLE CANNOT MOVE MORE THAN ONE CELL
 =  18.72    (WHEN MIN. R.F.=1)  AT K=  23, I=   1, J=  68

 MAXIMUM STEPSIZE WHICH MEETS STABILITY CRITERION OF THE ADVECTION TERM
 (FOR PURE FINITE-DIFFERENCE OPTION, MIXELM=0) 
 =  12.25    (WHEN MIN. R.F.=1)  AT K=  23, I=   1, J=  67


 TOTAL NUMBER OF POINT SOURCES/SINKS PRESENT IN THE FLOW MODEL =    30

 MAXIMUM STEPSIZE WHICH MEETS STABILITY CRITERION OF THE SINK & SOURCE TERM
 =  1126.    (WHEN MIN. R.F.=1)  AT K=   4, I=   1, J=  75

 MAXIMUM STEPSIZE WHICH MEETS STABILITY CRITERION OF THE DISPERSION TERM
 =  3.065    (WHEN MIN. R.F.=1)  AT K=  22, I=   1, J=  68
     1 CALLS TO GCG PACKAGE FOR TRANSPORT TIME STEP  20 IN FLOW TIME STEP   1 STRESS PERIOD   1
     5 TOTAL ITERATIONS
  MAXIMUM CONCENTRATION CHANGES FOR EACH ITERATION:
  MAX. CHANGE LAYER,ROW,COL MAX. CHANGE LAYER,ROW,COL MAX. CHANGE LAYER,ROW,COL MAX. CHANGE LAYER,ROW,COL MAX. CHANGE LAYER,ROW,COL
 ------------------------------------------------------------------------------------------------------------------------------------
   0.8489E-01 (  1,  1, 71)  0.5431E-02 ( 23,  1, 68)  0.2427E-03 ( 23,  1, 68)  0.1180E-04 ( 23,  1, 68)  0.5604E-06 ( 23,  1, 68)



 >>>>>>>>>>>>>>>>>>>>>>>>>>>>>>>>>>>>>>>>>>>>>>>>>>>>>>>FOR COMPONENT NO. 01<<<<<<<<<<<<<<<<<<<<<<<<<<<<<<<<<<<<<<<<<<<<<<<<<<<<<<<


                                            -------------------------------------------
                                                      TRANSPORT STEP NO.   20
                                            -------------------------------------------

 TOTAL ELAPSED TIME SINCE BEGINNING OF SIMULATION =   59.02418    D   
 .....................................................................

                     CUMMULATIVE MASS BUDGETS AT END OF TRANSPORT STEP   20, TIME STEP    1, STRESS PERIOD    1
                     ------------------------------------------------------------------------------------------

                                                             IN                           OUT
                                                      ----------------             ----------------
                               CONSTANT CONCENTRATION:    0.000000                    0.000000    
                                        CONSTANT HEAD:    93390.97                   -767282.1    
                                             RECHARGE:    0.000000                    0.000000    
                                MASS STORAGE (SOLUTE):    6156448.                   -5482536.    
                            ---------------------------------------------------------------------------
                                              [TOTAL]:    6250856.     KG            -6250856.     KG  

                                                          NET (IN - OUT):  -0.2036747    
                                                   DISCREPANCY (PERCENT):  -0.3258349E-05
0WARNING: NUMERICAL OSCILLATION ENCOUNTERED
 ONE OR MORE CELL CONCENTRATIONS LESS THAN CRHOREF
 SMALLEST DENSITY =  0.100E+04
 AT CELL (I,J,K) = (   1,  69,   7)

 
 SOLVING FOR HEAD 


     2 CALLS TO PCG ROUTINE FOR TIME STEP   1 IN STRESS PERIOD    1
    11 TOTAL ITERATIONS

 MAXIMUM HEAD CHANGE FOR EACH ITERATION (1 INDICATES THE FIRST INNER ITERATION):

    HEAD CHANGE    HEAD CHANGE    HEAD CHANGE    HEAD CHANGE    HEAD CHANGE 
   LAYER,ROW,COL  LAYER,ROW,COL  LAYER,ROW,COL  LAYER,ROW,COL  LAYER,ROW,COL
 ---------------------------------------------------------------------------
  1  0.4965E-01  0 -0.4030E-01  0  0.4058E-01  0 -0.1583E-01  0 -0.1491E-01
   ( 15,  1, 82)  (  9,  1, 12)  ( 10,  1, 12)  ( 11,  1, 70)  ( 11,  1, 71)
  0  0.7725E-02  0  0.7416E-02  0  0.3471E-02  0 -0.1867E-02  0 -0.6153E-03
   ( 11,  1, 70)  ( 11,  1, 71)  ( 11,  1, 71)  ( 11,  1, 70)  ( 11,  1, 71)
  1 -0.2554E-03
   ( 11,  1, 69)

 MAXIMUM RESIDUAL FOR EACH ITERATION (1 INDICATES THE FIRST INNER ITERATION):

    RESIDUAL       RESIDUAL       RESIDUAL       RESIDUAL       RESIDUAL    
   LAYER,ROW,COL  LAYER,ROW,COL  LAYER,ROW,COL  LAYER,ROW,COL  LAYER,ROW,COL
 ---------------------------------------------------------------------------
  1 -0.6654E+06  0 -0.4374E+06  0  0.5641E+05  0  0.4536E+05  0  0.2793E+05
   ( 23,  1, 67)  ( 23,  1, 67)  ( 22,  1, 67)  ( 22,  1, 67)  ( 22,  1, 67)
  0   9314.      0   3008.      0   1860.      0   1369.      0   866.1    
   ( 22,  1, 67)  ( 22,  1, 67)  ( 23,  1, 69)  ( 22,  1, 66)  ( 22,  1, 66)
  1  -774.6    
   ( 20,  1, 67)


 FLOW MODEL IS TRANSIENT
 FLOW MODEL CONTAINS CONSTANT-HEAD CELLS


 MAXIMUM STEPSIZE DURING WHICH ANY PARTICLE CANNOT MOVE MORE THAN ONE CELL
 =  19.70    (WHEN MIN. R.F.=1)  AT K=  23, I=   1, J=  68

 MAXIMUM STEPSIZE WHICH MEETS STABILITY CRITERION OF THE ADVECTION TERM
 (FOR PURE FINITE-DIFFERENCE OPTION, MIXELM=0) 
 =  14.36    (WHEN MIN. R.F.=1)  AT K=  23, I=   1, J=  67


 TOTAL NUMBER OF POINT SOURCES/SINKS PRESENT IN THE FLOW MODEL =    30

 MAXIMUM STEPSIZE WHICH MEETS STABILITY CRITERION OF THE SINK & SOURCE TERM
 =  1073.    (WHEN MIN. R.F.=1)  AT K=   4, I=   1, J=  75

 MAXIMUM STEPSIZE WHICH MEETS STABILITY CRITERION OF THE DISPERSION TERM
 =  3.202    (WHEN MIN. R.F.=1)  AT K=  22, I=   1, J=  68
     1 CALLS TO GCG PACKAGE FOR TRANSPORT TIME STEP  21 IN FLOW TIME STEP   1 STRESS PERIOD   1
     5 TOTAL ITERATIONS
0WARNING: NUMERICAL OSCILLATION ENCOUNTERED
 ONE OR MORE CELL CONCENTRATIONS LESS THAN CRHOREF
 SMALLEST DENSITY =  0.100E+04
 AT CELL (I,J,K) = (   1,  69,   7)

 
 SOLVING FOR HEAD 


     2 CALLS TO PCG ROUTINE FOR TIME STEP   1 IN STRESS PERIOD    1
    11 TOTAL ITERATIONS

 MAXIMUM HEAD CHANGE FOR EACH ITERATION (1 INDICATES THE FIRST INNER ITERATION):

    HEAD CHANGE    HEAD CHANGE    HEAD CHANGE    HEAD CHANGE    HEAD CHANGE 
   LAYER,ROW,COL  LAYER,ROW,COL  LAYER,ROW,COL  LAYER,ROW,COL  LAYER,ROW,COL
 ---------------------------------------------------------------------------
  1  0.4573E-01  0 -0.4160E-01  0  0.4249E-01  0 -0.1825E-01  0 -0.1502E-01
   ( 15,  1, 82)  (  9,  1, 12)  ( 10,  1, 12)  ( 11,  1, 70)  ( 11,  1, 71)
  0  0.1039E-01  0  0.8341E-02  0 -0.3454E-02  0 -0.1634E-02  0 -0.7812E-03
   ( 11,  1, 70)  ( 11,  1, 71)  ( 11,  1, 70)  ( 11,  1, 70)  ( 11,  1, 71)
  1 -0.2586E-03
   ( 11,  1, 69)

 MAXIMUM RESIDUAL FOR EACH ITERATION (1 INDICATES THE FIRST INNER ITERATION):

    RESIDUAL       RESIDUAL       RESIDUAL       RESIDUAL       RESIDUAL    
   LAYER,ROW,COL  LAYER,ROW,COL  LAYER,ROW,COL  LAYER,ROW,COL  LAYER,ROW,COL
 ---------------------------------------------------------------------------
  1 -0.6843E+06  0 -0.4559E+06  0  0.4475E+05  0  0.3700E+05  0  0.2443E+05
   ( 23,  1, 67)  ( 23,  1, 67)  ( 22,  1, 67)  ( 22,  1, 67)  ( 22,  1, 67)
  0   8307.      0   2608.      0   1848.      0   1355.      0   834.9    
   ( 22,  1, 67)  ( 22,  1, 66)  ( 23,  1, 69)  ( 22,  1, 66)  ( 22,  1, 66)
  1   710.2    
   ( 22,  1, 66)


 FLOW MODEL IS TRANSIENT
 FLOW MODEL CONTAINS CONSTANT-HEAD CELLS


 MAXIMUM STEPSIZE DURING WHICH ANY PARTICLE CANNOT MOVE MORE THAN ONE CELL
 =  20.12    (WHEN MIN. R.F.=1)  AT K=  21, I=   1, J=  66

 MAXIMUM STEPSIZE WHICH MEETS STABILITY CRITERION OF THE ADVECTION TERM
 (FOR PURE FINITE-DIFFERENCE OPTION, MIXELM=0) 
 =  13.11    (WHEN MIN. R.F.=1)  AT K=  23, I=   1, J=  66


 TOTAL NUMBER OF POINT SOURCES/SINKS PRESENT IN THE FLOW MODEL =    30

 MAXIMUM STEPSIZE WHICH MEETS STABILITY CRITERION OF THE SINK & SOURCE TERM
 =  1014.    (WHEN MIN. R.F.=1)  AT K=   3, I=   1, J=  73

 MAXIMUM STEPSIZE WHICH MEETS STABILITY CRITERION OF THE DISPERSION TERM
 =  3.362    (WHEN MIN. R.F.=1)  AT K=  22, I=   1, J=  68
     1 CALLS TO GCG PACKAGE FOR TRANSPORT TIME STEP  22 IN FLOW TIME STEP   1 STRESS PERIOD   1
     6 TOTAL ITERATIONS
0WARNING: NUMERICAL OSCILLATION ENCOUNTERED
 ONE OR MORE CELL CONCENTRATIONS LESS THAN CRHOREF
 SMALLEST DENSITY =  0.100E+04
 AT CELL (I,J,K) = (   1,  69,   7)

 
 SOLVING FOR HEAD 


     2 CALLS TO PCG ROUTINE FOR TIME STEP   1 IN STRESS PERIOD    1
    11 TOTAL ITERATIONS

 MAXIMUM HEAD CHANGE FOR EACH ITERATION (1 INDICATES THE FIRST INNER ITERATION):

    HEAD CHANGE    HEAD CHANGE    HEAD CHANGE    HEAD CHANGE    HEAD CHANGE 
   LAYER,ROW,COL  LAYER,ROW,COL  LAYER,ROW,COL  LAYER,ROW,COL  LAYER,ROW,COL
 ---------------------------------------------------------------------------
  1  0.3942E-01  0 -0.4531E-01  0  0.4572E-01  0 -0.1874E-01  0 -0.1396E-01
   ( 15,  1, 82)  (  9,  1, 12)  ( 10,  1, 12)  ( 11,  1, 70)  ( 11,  1, 71)
  0  0.8697E-02  0  0.6937E-02  0  0.3396E-02  0 -0.1840E-02  0 -0.7021E-03
   ( 11,  1, 70)  ( 11,  1, 71)  ( 11,  1, 71)  ( 11,  1, 70)  ( 11,  1, 71)
  1 -0.2570E-03
   ( 11,  1, 69)

 MAXIMUM RESIDUAL FOR EACH ITERATION (1 INDICATES THE FIRST INNER ITERATION):

    RESIDUAL       RESIDUAL       RESIDUAL       RESIDUAL       RESIDUAL    
   LAYER,ROW,COL  LAYER,ROW,COL  LAYER,ROW,COL  LAYER,ROW,COL  LAYER,ROW,COL
 ---------------------------------------------------------------------------
  1 -0.6859E+06  0 -0.4331E+06  0  0.3540E+05  0  0.2628E+05  0  0.1860E+05
   ( 23,  1, 67)  ( 23,  1, 67)  ( 22,  1, 66)  ( 22,  1, 66)  ( 22,  1, 66)
  0   9460.      0   3448.      0   1629.      0   1048.      0   674.0    
   ( 22,  1, 66)  ( 22,  1, 66)  ( 23,  1, 69)  ( 23,  1, 69)  ( 23,  1, 69)
  1   596.8    
   ( 23,  1, 69)


 FLOW MODEL IS TRANSIENT
 FLOW MODEL CONTAINS CONSTANT-HEAD CELLS


 MAXIMUM STEPSIZE DURING WHICH ANY PARTICLE CANNOT MOVE MORE THAN ONE CELL
 =  20.73    (WHEN MIN. R.F.=1)  AT K=  21, I=   1, J=  66

 MAXIMUM STEPSIZE WHICH MEETS STABILITY CRITERION OF THE ADVECTION TERM
 (FOR PURE FINITE-DIFFERENCE OPTION, MIXELM=0) 
 =  12.84    (WHEN MIN. R.F.=1)  AT K=  23, I=   1, J=  66


 TOTAL NUMBER OF POINT SOURCES/SINKS PRESENT IN THE FLOW MODEL =    30

 MAXIMUM STEPSIZE WHICH MEETS STABILITY CRITERION OF THE SINK & SOURCE TERM
 =  879.5    (WHEN MIN. R.F.=1)  AT K=   3, I=   1, J=  73

 MAXIMUM STEPSIZE WHICH MEETS STABILITY CRITERION OF THE DISPERSION TERM
 =  3.551    (WHEN MIN. R.F.=1)  AT K=  22, I=   1, J=  68
     1 CALLS TO GCG PACKAGE FOR TRANSPORT TIME STEP  23 IN FLOW TIME STEP   1 STRESS PERIOD   1
     5 TOTAL ITERATIONS
0WARNING: NUMERICAL OSCILLATION ENCOUNTERED
 ONE OR MORE CELL CONCENTRATIONS LESS THAN CRHOREF
 SMALLEST DENSITY =  0.100E+04
 AT CELL (I,J,K) = (   1,  69,   7)

 
 SOLVING FOR HEAD 


     2 CALLS TO PCG ROUTINE FOR TIME STEP   1 IN STRESS PERIOD    1
    11 TOTAL ITERATIONS

 MAXIMUM HEAD CHANGE FOR EACH ITERATION (1 INDICATES THE FIRST INNER ITERATION):

    HEAD CHANGE    HEAD CHANGE    HEAD CHANGE    HEAD CHANGE    HEAD CHANGE 
   LAYER,ROW,COL  LAYER,ROW,COL  LAYER,ROW,COL  LAYER,ROW,COL  LAYER,ROW,COL
 ---------------------------------------------------------------------------
  1 -0.2960E-01  0 -0.3849E-01  0  0.3877E-01  0 -0.1604E-01  0 -0.1308E-01
   ( 23,  1, 71)  (  9,  1, 12)  ( 10,  1, 12)  ( 11,  1, 71)  ( 11,  1, 71)
  0  0.6851E-02  0  0.6369E-02  0  0.3044E-02  0 -0.1537E-02  0 -0.6466E-03
   ( 11,  1, 70)  ( 11,  1, 71)  ( 11,  1, 71)  ( 11,  1, 70)  ( 11,  1, 71)
  1 -0.2471E-03
   ( 11,  1, 69)

 MAXIMUM RESIDUAL FOR EACH ITERATION (1 INDICATES THE FIRST INNER ITERATION):

    RESIDUAL       RESIDUAL       RESIDUAL       RESIDUAL       RESIDUAL    
   LAYER,ROW,COL  LAYER,ROW,COL  LAYER,ROW,COL  LAYER,ROW,COL  LAYER,ROW,COL
 ---------------------------------------------------------------------------
  1 -0.5299E+06  0 -0.3222E+06  0  0.4467E+05  0  0.3497E+05  0  0.2376E+05
   ( 23,  1, 66)  ( 23,  1, 66)  ( 22,  1, 66)  ( 22,  1, 66)  ( 22,  1, 66)
  0  0.1044E+05  0   3497.      0   1318.      0   907.7      0   588.8    
   ( 22,  1, 66)  ( 22,  1, 66)  ( 22,  1, 66)  ( 22,  1, 65)  ( 22,  1, 65)
  1  -647.7    
   ( 20,  1, 66)


 FLOW MODEL IS TRANSIENT
 FLOW MODEL CONTAINS CONSTANT-HEAD CELLS


 MAXIMUM STEPSIZE DURING WHICH ANY PARTICLE CANNOT MOVE MORE THAN ONE CELL
 =  22.36    (WHEN MIN. R.F.=1)  AT K=  23, I=   1, J=  67

 MAXIMUM STEPSIZE WHICH MEETS STABILITY CRITERION OF THE ADVECTION TERM
 (FOR PURE FINITE-DIFFERENCE OPTION, MIXELM=0) 
 =  13.69    (WHEN MIN. R.F.=1)  AT K=  23, I=   1, J=  66


 TOTAL NUMBER OF POINT SOURCES/SINKS PRESENT IN THE FLOW MODEL =    30

 MAXIMUM STEPSIZE WHICH MEETS STABILITY CRITERION OF THE SINK & SOURCE TERM
 =  791.1    (WHEN MIN. R.F.=1)  AT K=   3, I=   1, J=  73

 MAXIMUM STEPSIZE WHICH MEETS STABILITY CRITERION OF THE DISPERSION TERM
 =  3.707    (WHEN MIN. R.F.=1)  AT K=  22, I=   1, J=  68
     1 CALLS TO GCG PACKAGE FOR TRANSPORT TIME STEP  24 IN FLOW TIME STEP   1 STRESS PERIOD   1
     5 TOTAL ITERATIONS
0WARNING: NUMERICAL OSCILLATION ENCOUNTERED
 ONE OR MORE CELL CONCENTRATIONS LESS THAN CRHOREF
 SMALLEST DENSITY =  0.100E+04
 AT CELL (I,J,K) = (   1,  69,   7)

 
 SOLVING FOR HEAD 


     2 CALLS TO PCG ROUTINE FOR TIME STEP   1 IN STRESS PERIOD    1
    11 TOTAL ITERATIONS

 MAXIMUM HEAD CHANGE FOR EACH ITERATION (1 INDICATES THE FIRST INNER ITERATION):

    HEAD CHANGE    HEAD CHANGE    HEAD CHANGE    HEAD CHANGE    HEAD CHANGE 
   LAYER,ROW,COL  LAYER,ROW,COL  LAYER,ROW,COL  LAYER,ROW,COL  LAYER,ROW,COL
 ---------------------------------------------------------------------------
  1 -0.2684E-01  0 -0.3529E-01  0  0.3577E-01  0 -0.1564E-01  0 -0.1265E-01
   ( 23,  1, 72)  (  9,  1, 12)  ( 10,  1, 12)  ( 11,  1, 70)  ( 11,  1, 71)
  0  0.7967E-02  0  0.6815E-02  0 -0.2676E-02  0 -0.1270E-02  0 -0.6766E-03
   ( 11,  1, 70)  ( 11,  1, 71)  ( 11,  1, 70)  ( 11,  1, 70)  ( 11,  1, 71)
  1 -0.2613E-03
   ( 11,  1, 69)

 MAXIMUM RESIDUAL FOR EACH ITERATION (1 INDICATES THE FIRST INNER ITERATION):

    RESIDUAL       RESIDUAL       RESIDUAL       RESIDUAL       RESIDUAL    
   LAYER,ROW,COL  LAYER,ROW,COL  LAYER,ROW,COL  LAYER,ROW,COL  LAYER,ROW,COL
 ---------------------------------------------------------------------------
  1 -0.5471E+06  0 -0.3219E+06  0  0.4667E+05  0  0.3693E+05  0  0.2407E+05
   ( 23,  1, 66)  ( 23,  1, 66)  ( 22,  1, 66)  ( 22,  1, 66)  ( 22,  1, 66)
  0   9508.      0   2994.      0  -1322.      0   999.2      0   614.0    
   ( 22,  1, 66)  ( 22,  1, 66)  ( 22,  1, 69)  ( 22,  1, 65)  ( 22,  1, 65)
  1  -700.5    
   ( 20,  1, 66)


 FLOW MODEL IS TRANSIENT
 FLOW MODEL CONTAINS CONSTANT-HEAD CELLS


 MAXIMUM STEPSIZE DURING WHICH ANY PARTICLE CANNOT MOVE MORE THAN ONE CELL
 =  23.11    (WHEN MIN. R.F.=1)  AT K=  23, I=   1, J=  67

 MAXIMUM STEPSIZE WHICH MEETS STABILITY CRITERION OF THE ADVECTION TERM
 (FOR PURE FINITE-DIFFERENCE OPTION, MIXELM=0) 
 =  15.27    (WHEN MIN. R.F.=1)  AT K=  23, I=   1, J=  66


 TOTAL NUMBER OF POINT SOURCES/SINKS PRESENT IN THE FLOW MODEL =    30

 MAXIMUM STEPSIZE WHICH MEETS STABILITY CRITERION OF THE SINK & SOURCE TERM
 =  724.3    (WHEN MIN. R.F.=1)  AT K=   3, I=   1, J=  73

 MAXIMUM STEPSIZE WHICH MEETS STABILITY CRITERION OF THE DISPERSION TERM
 =  3.831    (WHEN MIN. R.F.=1)  AT K=  22, I=   1, J=  67
     1 CALLS TO GCG PACKAGE FOR TRANSPORT TIME STEP  25 IN FLOW TIME STEP   1 STRESS PERIOD   1
     5 TOTAL ITERATIONS
  MAXIMUM CONCENTRATION CHANGES FOR EACH ITERATION:
  MAX. CHANGE LAYER,ROW,COL MAX. CHANGE LAYER,ROW,COL MAX. CHANGE LAYER,ROW,COL MAX. CHANGE LAYER,ROW,COL MAX. CHANGE LAYER,ROW,COL
 ------------------------------------------------------------------------------------------------------------------------------------
   0.7767E-01 (  1,  1, 71)  0.4468E-02 ( 23,  1, 67)  0.2102E-03 ( 23,  1, 67)  0.1004E-04 ( 23,  1, 67)  0.4017E-06 ( 23,  1, 67)
0WARNING: NUMERICAL OSCILLATION ENCOUNTERED
 ONE OR MORE CELL CONCENTRATIONS LESS THAN CRHOREF
 SMALLEST DENSITY =  0.100E+04
 AT CELL (I,J,K) = (   1,  69,   7)

 
 SOLVING FOR HEAD 


     2 CALLS TO PCG ROUTINE FOR TIME STEP   1 IN STRESS PERIOD    1
    11 TOTAL ITERATIONS

 MAXIMUM HEAD CHANGE FOR EACH ITERATION (1 INDICATES THE FIRST INNER ITERATION):

    HEAD CHANGE    HEAD CHANGE    HEAD CHANGE    HEAD CHANGE    HEAD CHANGE 
   LAYER,ROW,COL  LAYER,ROW,COL  LAYER,ROW,COL  LAYER,ROW,COL  LAYER,ROW,COL
 ---------------------------------------------------------------------------
  1 -0.2675E-01  0 -0.3515E-01  0  0.3578E-01  0 -0.1758E-01  0 -0.1242E-01
   ( 23,  1, 72)  (  9,  1, 12)  ( 10,  1, 12)  ( 11,  1, 70)  ( 11,  1, 71)
  0  0.9941E-02  0  0.7215E-02  0 -0.2921E-02  0 -0.1042E-02  0 -0.7169E-03
   ( 11,  1, 70)  ( 11,  1, 71)  ( 11,  1, 70)  ( 11,  1, 70)  ( 11,  1, 71)
  1 -0.2455E-03
   ( 11,  1, 69)

 MAXIMUM RESIDUAL FOR EACH ITERATION (1 INDICATES THE FIRST INNER ITERATION):

    RESIDUAL       RESIDUAL       RESIDUAL       RESIDUAL       RESIDUAL    
   LAYER,ROW,COL  LAYER,ROW,COL  LAYER,ROW,COL  LAYER,ROW,COL  LAYER,ROW,COL
 ---------------------------------------------------------------------------
  1 -0.5740E+06  0 -0.3408E+06  0  0.4400E+05  0  0.3518E+05  0  0.2310E+05
   ( 23,  1, 66)  ( 23,  1, 66)  ( 22,  1, 66)  ( 22,  1, 66)  ( 22,  1, 66)
  0   8789.      0   2573.      0  -1444.      0   1090.      0   661.9    
   ( 22,  1, 66)  ( 22,  1, 66)  ( 22,  1, 69)  ( 22,  1, 65)  ( 22,  1, 65)
  1  -587.2    
   ( 20,  1, 66)


 FLOW MODEL IS TRANSIENT
 FLOW MODEL CONTAINS CONSTANT-HEAD CELLS


 MAXIMUM STEPSIZE DURING WHICH ANY PARTICLE CANNOT MOVE MORE THAN ONE CELL
 =  24.11    (WHEN MIN. R.F.=1)  AT K=  23, I=   1, J=  67

 MAXIMUM STEPSIZE WHICH MEETS STABILITY CRITERION OF THE ADVECTION TERM
 (FOR PURE FINITE-DIFFERENCE OPTION, MIXELM=0) 
 =  17.59    (WHEN MIN. R.F.=1)  AT K=  23, I=   1, J=  66


 TOTAL NUMBER OF POINT SOURCES/SINKS PRESENT IN THE FLOW MODEL =    30

 MAXIMUM STEPSIZE WHICH MEETS STABILITY CRITERION OF THE SINK & SOURCE TERM
 =  668.1    (WHEN MIN. R.F.=1)  AT K=   3, I=   1, J=  73

 MAXIMUM STEPSIZE WHICH MEETS STABILITY CRITERION OF THE DISPERSION TERM
 =  3.967    (WHEN MIN. R.F.=1)  AT K=  22, I=   1, J=  67
     1 CALLS TO GCG PACKAGE FOR TRANSPORT TIME STEP  26 IN FLOW TIME STEP   1 STRESS PERIOD   1
     5 TOTAL ITERATIONS
0WARNING: NUMERICAL OSCILLATION ENCOUNTERED
 ONE OR MORE CELL CONCENTRATIONS LESS THAN CRHOREF
 SMALLEST DENSITY =  0.100E+04
 AT CELL (I,J,K) = (   1,  69,   7)

 
 SOLVING FOR HEAD 


     2 CALLS TO PCG ROUTINE FOR TIME STEP   1 IN STRESS PERIOD    1
    10 TOTAL ITERATIONS

 MAXIMUM HEAD CHANGE FOR EACH ITERATION (1 INDICATES THE FIRST INNER ITERATION):

    HEAD CHANGE    HEAD CHANGE    HEAD CHANGE    HEAD CHANGE    HEAD CHANGE 
   LAYER,ROW,COL  LAYER,ROW,COL  LAYER,ROW,COL  LAYER,ROW,COL  LAYER,ROW,COL
 ---------------------------------------------------------------------------
  1 -0.2788E-01  0 -0.3657E-01  0  0.3766E-01  0 -0.1996E-01  0 -0.1204E-01
   ( 23,  1, 72)  (  9,  1, 12)  (  9,  1, 12)  ( 11,  1, 70)  ( 11,  1, 71)
  0  0.1197E-01  0  0.7182E-02  0 -0.3123E-02  0 -0.8896E-03  1  0.7814E-03
   ( 11,  1, 70)  ( 11,  1, 71)  ( 11,  1, 70)  ( 11,  1, 67)  ( 11,  1, 70)

 MAXIMUM RESIDUAL FOR EACH ITERATION (1 INDICATES THE FIRST INNER ITERATION):

    RESIDUAL       RESIDUAL       RESIDUAL       RESIDUAL       RESIDUAL    
   LAYER,ROW,COL  LAYER,ROW,COL  LAYER,ROW,COL  LAYER,ROW,COL  LAYER,ROW,COL
 ---------------------------------------------------------------------------
  1 -0.5951E+06  0 -0.3503E+06  0  0.3547E+05  0  0.2902E+05  0  0.2007E+05
   ( 23,  1, 66)  ( 23,  1, 66)  ( 22,  1, 66)  ( 22,  1, 66)  ( 22,  1, 66)
  0   7920.      0  -2171.      0  -1466.      0   1096.      1   825.3    
   ( 22,  1, 66)  ( 22,  1, 69)  ( 22,  1, 69)  ( 22,  1, 65)  ( 22,  1, 65)


 FLOW MODEL IS TRANSIENT
 FLOW MODEL CONTAINS CONSTANT-HEAD CELLS


 MAXIMUM STEPSIZE DURING WHICH ANY PARTICLE CANNOT MOVE MORE THAN ONE CELL
 =  24.87    (WHEN MIN. R.F.=1)  AT K=  21, I=   1, J=  65

 MAXIMUM STEPSIZE WHICH MEETS STABILITY CRITERION OF THE ADVECTION TERM
 (FOR PURE FINITE-DIFFERENCE OPTION, MIXELM=0) 
 =  16.28    (WHEN MIN. R.F.=1)  AT K=  23, I=   1, J=  65


 TOTAL NUMBER OF POINT SOURCES/SINKS PRESENT IN THE FLOW MODEL =    30

 MAXIMUM STEPSIZE WHICH MEETS STABILITY CRITERION OF THE SINK & SOURCE TERM
 =  618.8    (WHEN MIN. R.F.=1)  AT K=   3, I=   1, J=  73

 MAXIMUM STEPSIZE WHICH MEETS STABILITY CRITERION OF THE DISPERSION TERM
 =  4.128    (WHEN MIN. R.F.=1)  AT K=  22, I=   1, J=  67
     1 CALLS TO GCG PACKAGE FOR TRANSPORT TIME STEP  27 IN FLOW TIME STEP   1 STRESS PERIOD   1
     6 TOTAL ITERATIONS
0WARNING: NUMERICAL OSCILLATION ENCOUNTERED
 ONE OR MORE CELL CONCENTRATIONS LESS THAN CRHOREF
 SMALLEST DENSITY =  0.100E+04
 AT CELL (I,J,K) = (   1,  69,   7)

 
 SOLVING FOR HEAD 


     2 CALLS TO PCG ROUTINE FOR TIME STEP   1 IN STRESS PERIOD    1
    10 TOTAL ITERATIONS

 MAXIMUM HEAD CHANGE FOR EACH ITERATION (1 INDICATES THE FIRST INNER ITERATION):

    HEAD CHANGE    HEAD CHANGE    HEAD CHANGE    HEAD CHANGE    HEAD CHANGE 
   LAYER,ROW,COL  LAYER,ROW,COL  LAYER,ROW,COL  LAYER,ROW,COL  LAYER,ROW,COL
 ---------------------------------------------------------------------------
  1 -0.2985E-01  0 -0.3953E-01  0  0.4026E-01  0 -0.2079E-01  0 -0.1153E-01
   ( 23,  1, 72)  (  9,  1, 12)  (  9,  1, 12)  ( 11,  1, 70)  ( 11,  1, 71)
  0  0.1193E-01  0  0.7039E-02  0 -0.3226E-02  0 -0.8773E-03  1  0.8669E-03
   ( 11,  1, 70)  ( 11,  1, 71)  ( 11,  1, 70)  ( 11,  1, 67)  ( 11,  1, 70)

 MAXIMUM RESIDUAL FOR EACH ITERATION (1 INDICATES THE FIRST INNER ITERATION):

    RESIDUAL       RESIDUAL       RESIDUAL       RESIDUAL       RESIDUAL    
   LAYER,ROW,COL  LAYER,ROW,COL  LAYER,ROW,COL  LAYER,ROW,COL  LAYER,ROW,COL
 ---------------------------------------------------------------------------
  1 -0.5933E+06  0 -0.3327E+06  0  0.2669E+05  0  0.1949E+05  0  0.1397E+05
   ( 23,  1, 66)  ( 23,  1, 66)  ( 22,  1, 65)  ( 22,  1, 65)  ( 22,  1, 65)
  0   7529.      0   2419.      0  -1464.      0   960.7      1   781.2    
   ( 22,  1, 65)  ( 22,  1, 65)  ( 22,  1, 69)  ( 23,  1, 68)  ( 23,  1, 68)


 FLOW MODEL IS TRANSIENT
 FLOW MODEL CONTAINS CONSTANT-HEAD CELLS


 MAXIMUM STEPSIZE DURING WHICH ANY PARTICLE CANNOT MOVE MORE THAN ONE CELL
 =  25.26    (WHEN MIN. R.F.=1)  AT K=  21, I=   1, J=  65

 MAXIMUM STEPSIZE WHICH MEETS STABILITY CRITERION OF THE ADVECTION TERM
 (FOR PURE FINITE-DIFFERENCE OPTION, MIXELM=0) 
 =  15.76    (WHEN MIN. R.F.=1)  AT K=  23, I=   1, J=  65


 TOTAL NUMBER OF POINT SOURCES/SINKS PRESENT IN THE FLOW MODEL =    30

 MAXIMUM STEPSIZE WHICH MEETS STABILITY CRITERION OF THE SINK & SOURCE TERM
 =  574.0    (WHEN MIN. R.F.=1)  AT K=   3, I=   1, J=  73

 MAXIMUM STEPSIZE WHICH MEETS STABILITY CRITERION OF THE DISPERSION TERM
 =  4.312    (WHEN MIN. R.F.=1)  AT K=  22, I=   1, J=  67
     1 CALLS TO GCG PACKAGE FOR TRANSPORT TIME STEP  28 IN FLOW TIME STEP   1 STRESS PERIOD   1
     5 TOTAL ITERATIONS
0WARNING: NUMERICAL OSCILLATION ENCOUNTERED
 ONE OR MORE CELL CONCENTRATIONS LESS THAN CRHOREF
 SMALLEST DENSITY =  0.100E+04
 AT CELL (I,J,K) = (   1,  69,   7)

 
 SOLVING FOR HEAD 


     2 CALLS TO PCG ROUTINE FOR TIME STEP   1 IN STRESS PERIOD    1
    11 TOTAL ITERATIONS

 MAXIMUM HEAD CHANGE FOR EACH ITERATION (1 INDICATES THE FIRST INNER ITERATION):

    HEAD CHANGE    HEAD CHANGE    HEAD CHANGE    HEAD CHANGE    HEAD CHANGE 
   LAYER,ROW,COL  LAYER,ROW,COL  LAYER,ROW,COL  LAYER,ROW,COL  LAYER,ROW,COL
 ---------------------------------------------------------------------------
  1 -0.2575E-01  0 -0.3427E-01  0  0.3483E-01  0 -0.1868E-01  0 -0.9951E-02
   ( 23,  1, 72)  (  9,  1, 12)  (  9,  1, 12)  ( 11,  1, 70)  ( 11,  1, 71)
  0  0.1001E-01  0  0.5684E-02  0 -0.2843E-02  0 -0.1167E-02  0  0.8074E-03
   ( 11,  1, 70)  ( 11,  1, 71)  ( 11,  1, 70)  ( 11,  1, 70)  ( 11,  1, 70)
  1 -0.2531E-03
   ( 11,  1, 69)

 MAXIMUM RESIDUAL FOR EACH ITERATION (1 INDICATES THE FIRST INNER ITERATION):

    RESIDUAL       RESIDUAL       RESIDUAL       RESIDUAL       RESIDUAL    
   LAYER,ROW,COL  LAYER,ROW,COL  LAYER,ROW,COL  LAYER,ROW,COL  LAYER,ROW,COL
 ---------------------------------------------------------------------------
  1 -0.4447E+06  0 -0.2419E+06  0  0.3540E+05  0  0.2756E+05  0  0.1902E+05
   ( 23,  1, 65)  ( 23,  1, 65)  ( 22,  1, 65)  ( 22,  1, 65)  ( 22,  1, 65)
  0   8510.      0   2864.      0   1308.      0   843.3      0   514.0    
   ( 22,  1, 65)  ( 22,  1, 65)  ( 23,  1, 68)  ( 23,  1, 68)  ( 23,  1, 68)
  1  -488.0    
   ( 20,  1, 65)


 FLOW MODEL IS TRANSIENT
 FLOW MODEL CONTAINS CONSTANT-HEAD CELLS


 MAXIMUM STEPSIZE DURING WHICH ANY PARTICLE CANNOT MOVE MORE THAN ONE CELL
 =  27.04    (WHEN MIN. R.F.=1)  AT K=  23, I=   1, J=  66

 MAXIMUM STEPSIZE WHICH MEETS STABILITY CRITERION OF THE ADVECTION TERM
 (FOR PURE FINITE-DIFFERENCE OPTION, MIXELM=0) 
 =  16.61    (WHEN MIN. R.F.=1)  AT K=  23, I=   1, J=  65


 TOTAL NUMBER OF POINT SOURCES/SINKS PRESENT IN THE FLOW MODEL =    30

 MAXIMUM STEPSIZE WHICH MEETS STABILITY CRITERION OF THE SINK & SOURCE TERM
 =  540.6    (WHEN MIN. R.F.=1)  AT K=   3, I=   1, J=  73

 MAXIMUM STEPSIZE WHICH MEETS STABILITY CRITERION OF THE DISPERSION TERM
 =  4.458    (WHEN MIN. R.F.=1)  AT K=  22, I=   1, J=  67
     1 CALLS TO GCG PACKAGE FOR TRANSPORT TIME STEP  29 IN FLOW TIME STEP   1 STRESS PERIOD   1
     5 TOTAL ITERATIONS
0WARNING: NUMERICAL OSCILLATION ENCOUNTERED
 ONE OR MORE CELL CONCENTRATIONS LESS THAN CRHOREF
 SMALLEST DENSITY =  0.100E+04
 AT CELL (I,J,K) = (   1,  69,   7)

 
 SOLVING FOR HEAD 


     2 CALLS TO PCG ROUTINE FOR TIME STEP   1 IN STRESS PERIOD    1
    10 TOTAL ITERATIONS

 MAXIMUM HEAD CHANGE FOR EACH ITERATION (1 INDICATES THE FIRST INNER ITERATION):

    HEAD CHANGE    HEAD CHANGE    HEAD CHANGE    HEAD CHANGE    HEAD CHANGE 
   LAYER,ROW,COL  LAYER,ROW,COL  LAYER,ROW,COL  LAYER,ROW,COL  LAYER,ROW,COL
 ---------------------------------------------------------------------------
  1 -0.2360E-01  0 -0.3135E-01  0  0.3202E-01  0 -0.1855E-01  0 -0.9729E-02
   ( 23,  1, 72)  (  9,  1, 12)  (  9,  1, 12)  ( 11,  1, 70)  ( 11,  1, 71)
  0  0.1052E-01  0  0.6372E-02  0 -0.2783E-02  0  0.7211E-03  1  0.7259E-03
   ( 11,  1, 70)  ( 11,  1, 71)  ( 11,  1, 70)  ( 11,  1, 69)  ( 11,  1, 70)

 MAXIMUM RESIDUAL FOR EACH ITERATION (1 INDICATES THE FIRST INNER ITERATION):

    RESIDUAL       RESIDUAL       RESIDUAL       RESIDUAL       RESIDUAL    
   LAYER,ROW,COL  LAYER,ROW,COL  LAYER,ROW,COL  LAYER,ROW,COL  LAYER,ROW,COL
 ---------------------------------------------------------------------------
  1 -0.4596E+06  0 -0.2451E+06  0  0.3773E+05  0  0.2967E+05  0  0.1931E+05
   ( 23,  1, 65)  ( 23,  1, 65)  ( 22,  1, 65)  ( 22,  1, 65)  ( 22,  1, 65)
  0   7490.      0   2219.      0  -1227.      0   824.9      1  -720.5    
   ( 22,  1, 65)  ( 22,  1, 65)  ( 22,  1, 69)  ( 23,  1, 68)  ( 20,  1, 65)


 FLOW MODEL IS TRANSIENT
 FLOW MODEL CONTAINS CONSTANT-HEAD CELLS


 MAXIMUM STEPSIZE DURING WHICH ANY PARTICLE CANNOT MOVE MORE THAN ONE CELL
 =  27.73    (WHEN MIN. R.F.=1)  AT K=  23, I=   1, J=  66

 MAXIMUM STEPSIZE WHICH MEETS STABILITY CRITERION OF THE ADVECTION TERM
 (FOR PURE FINITE-DIFFERENCE OPTION, MIXELM=0) 
 =  18.32    (WHEN MIN. R.F.=1)  AT K=  23, I=   1, J=  65


 TOTAL NUMBER OF POINT SOURCES/SINKS PRESENT IN THE FLOW MODEL =    30

 MAXIMUM STEPSIZE WHICH MEETS STABILITY CRITERION OF THE SINK & SOURCE TERM
 =  514.0    (WHEN MIN. R.F.=1)  AT K=   3, I=   1, J=  73

 MAXIMUM STEPSIZE WHICH MEETS STABILITY CRITERION OF THE DISPERSION TERM
 =  4.590    (WHEN MIN. R.F.=1)  AT K=  22, I=   1, J=  67
     1 CALLS TO GCG PACKAGE FOR TRANSPORT TIME STEP  30 IN FLOW TIME STEP   1 STRESS PERIOD   1
     5 TOTAL ITERATIONS
  MAXIMUM CONCENTRATION CHANGES FOR EACH ITERATION:
  MAX. CHANGE LAYER,ROW,COL MAX. CHANGE LAYER,ROW,COL MAX. CHANGE LAYER,ROW,COL MAX. CHANGE LAYER,ROW,COL MAX. CHANGE LAYER,ROW,COL
 ------------------------------------------------------------------------------------------------------------------------------------
   0.6711E-01 ( 16,  1, 90)  0.3660E-02 ( 23,  1, 66)  0.1826E-03 ( 23,  1, 66)  0.1015E-04 ( 23,  1, 67)  0.4203E-06 ( 23,  1, 67)



 >>>>>>>>>>>>>>>>>>>>>>>>>>>>>>>>>>>>>>>>>>>>>>>>>>>>>>>FOR COMPONENT NO. 01<<<<<<<<<<<<<<<<<<<<<<<<<<<<<<<<<<<<<<<<<<<<<<<<<<<<<<<


                                            -------------------------------------------
                                                      TRANSPORT STEP NO.   30
                                            -------------------------------------------

 TOTAL ELAPSED TIME SINCE BEGINNING OF SIMULATION =   132.9101    D   
 .....................................................................

                     CUMMULATIVE MASS BUDGETS AT END OF TRANSPORT STEP   30, TIME STEP    1, STRESS PERIOD    1
                     ------------------------------------------------------------------------------------------

                                                             IN                           OUT
                                                      ----------------             ----------------
                               CONSTANT CONCENTRATION:    0.000000                    0.000000    
                                        CONSTANT HEAD:    234346.9                   -1417564.    
                                             RECHARGE:    0.000000                    0.000000    
                                MASS STORAGE (SOLUTE):    8773020.                   -7589772.    
                            ---------------------------------------------------------------------------
                                              [TOTAL]:    9008406.     KG            -9008406.     KG  

                                                          NET (IN - OUT):   0.6024401E-01
                                                   DISCREPANCY (PERCENT):   0.6687532E-06
0WARNING: NUMERICAL OSCILLATION ENCOUNTERED
 ONE OR MORE CELL CONCENTRATIONS LESS THAN CRHOREF
 SMALLEST DENSITY =  0.100E+04
 AT CELL (I,J,K) = (   1,  69,   7)

 
 SOLVING FOR HEAD 


     2 CALLS TO PCG ROUTINE FOR TIME STEP   1 IN STRESS PERIOD    1
    10 TOTAL ITERATIONS

 MAXIMUM HEAD CHANGE FOR EACH ITERATION (1 INDICATES THE FIRST INNER ITERATION):

    HEAD CHANGE    HEAD CHANGE    HEAD CHANGE    HEAD CHANGE    HEAD CHANGE 
   LAYER,ROW,COL  LAYER,ROW,COL  LAYER,ROW,COL  LAYER,ROW,COL  LAYER,ROW,COL
 ---------------------------------------------------------------------------
  1 -0.2354E-01  0 -0.3127E-01  0  0.3206E-01  0 -0.1882E-01  0 -0.9655E-02
   ( 23,  1, 72)  (  9,  1, 12)  (  9,  1, 12)  ( 11,  1, 70)  ( 11,  1, 71)
  0  0.1226E-01  0  0.6486E-02  0 -0.2455E-02  0 -0.8514E-03  1  0.7987E-03
   ( 11,  1, 70)  ( 11,  1, 71)  ( 11,  1, 70)  ( 11,  1, 67)  ( 11,  1, 70)

 MAXIMUM RESIDUAL FOR EACH ITERATION (1 INDICATES THE FIRST INNER ITERATION):

    RESIDUAL       RESIDUAL       RESIDUAL       RESIDUAL       RESIDUAL    
   LAYER,ROW,COL  LAYER,ROW,COL  LAYER,ROW,COL  LAYER,ROW,COL  LAYER,ROW,COL
 ---------------------------------------------------------------------------
  1 -0.4847E+06  0 -0.2669E+06  0  0.3626E+05  0  0.2900E+05  0  0.1900E+05
   ( 23,  1, 65)  ( 23,  1, 65)  ( 22,  1, 65)  ( 22,  1, 65)  ( 22,  1, 65)
  0   6941.      0   2070.      0  -1226.      0   883.8      1   672.5    
   ( 22,  1, 65)  ( 22,  1, 65)  ( 22,  1, 69)  ( 22,  1, 64)  ( 23,  1, 68)


 FLOW MODEL IS TRANSIENT
 FLOW MODEL CONTAINS CONSTANT-HEAD CELLS


 MAXIMUM STEPSIZE DURING WHICH ANY PARTICLE CANNOT MOVE MORE THAN ONE CELL
 =  28.69    (WHEN MIN. R.F.=1)  AT K=  23, I=   1, J=  66

 MAXIMUM STEPSIZE WHICH MEETS STABILITY CRITERION OF THE ADVECTION TERM
 (FOR PURE FINITE-DIFFERENCE OPTION, MIXELM=0) 
 =  20.86    (WHEN MIN. R.F.=1)  AT K=  23, I=   1, J=  65


 TOTAL NUMBER OF POINT SOURCES/SINKS PRESENT IN THE FLOW MODEL =    30

 MAXIMUM STEPSIZE WHICH MEETS STABILITY CRITERION OF THE SINK & SOURCE TERM
 =  490.4    (WHEN MIN. R.F.=1)  AT K=   3, I=   1, J=  73

 MAXIMUM STEPSIZE WHICH MEETS STABILITY CRITERION OF THE DISPERSION TERM
 =  4.723    (WHEN MIN. R.F.=1)  AT K=  22, I=   1, J=  67
     1 CALLS TO GCG PACKAGE FOR TRANSPORT TIME STEP  31 IN FLOW TIME STEP   1 STRESS PERIOD   1
     5 TOTAL ITERATIONS
0WARNING: NUMERICAL OSCILLATION ENCOUNTERED
 ONE OR MORE CELL CONCENTRATIONS LESS THAN CRHOREF
 SMALLEST DENSITY =  0.100E+04
 AT CELL (I,J,K) = (   1,  69,   6)

 
 SOLVING FOR HEAD 


     2 CALLS TO PCG ROUTINE FOR TIME STEP   1 IN STRESS PERIOD    1
    11 TOTAL ITERATIONS

 MAXIMUM HEAD CHANGE FOR EACH ITERATION (1 INDICATES THE FIRST INNER ITERATION):

    HEAD CHANGE    HEAD CHANGE    HEAD CHANGE    HEAD CHANGE    HEAD CHANGE 
   LAYER,ROW,COL  LAYER,ROW,COL  LAYER,ROW,COL  LAYER,ROW,COL  LAYER,ROW,COL
 ---------------------------------------------------------------------------
  1 -0.2463E-01  0 -0.3227E-01  0  0.3332E-01  0 -0.2028E-01  0 -0.9446E-02
   ( 23,  1, 72)  (  9,  1, 12)  (  9,  1, 12)  ( 11,  1, 70)  ( 11,  1, 71)
  0  0.1330E-01  0  0.5971E-02  0 -0.3107E-02  0  0.1053E-02  0  0.7832E-03
   ( 11,  1, 70)  ( 11,  1, 71)  ( 11,  1, 70)  ( 11,  1, 69)  ( 11,  1, 70)
  1  0.3384E-03
   ( 11,  1, 67)

 MAXIMUM RESIDUAL FOR EACH ITERATION (1 INDICATES THE FIRST INNER ITERATION):

    RESIDUAL       RESIDUAL       RESIDUAL       RESIDUAL       RESIDUAL    
   LAYER,ROW,COL  LAYER,ROW,COL  LAYER,ROW,COL  LAYER,ROW,COL  LAYER,ROW,COL
 ---------------------------------------------------------------------------
  1 -0.5125E+06  0 -0.2945E+06  0  0.2971E+05  0  0.2435E+05  0  0.1675E+05
   ( 23,  1, 65)  ( 23,  1, 65)  ( 22,  1, 65)  ( 22,  1, 65)  ( 22,  1, 65)
  0   6354.      0   2235.      0   1164.      0   944.5      0   597.2    
   ( 22,  1, 65)  ( 22,  1, 65)  ( 22,  1, 64)  ( 22,  1, 64)  ( 22,  1, 64)
  1   429.2    
   ( 22,  1, 64)


 FLOW MODEL IS TRANSIENT
 FLOW MODEL CONTAINS CONSTANT-HEAD CELLS


 MAXIMUM STEPSIZE DURING WHICH ANY PARTICLE CANNOT MOVE MORE THAN ONE CELL
 =  29.86    (WHEN MIN. R.F.=1)  AT K=  23, I=   1, J=  66

 MAXIMUM STEPSIZE WHICH MEETS STABILITY CRITERION OF THE ADVECTION TERM
 (FOR PURE FINITE-DIFFERENCE OPTION, MIXELM=0) 
 =  19.89    (WHEN MIN. R.F.=1)  AT K=  23, I=   1, J=  64


 TOTAL NUMBER OF POINT SOURCES/SINKS PRESENT IN THE FLOW MODEL =    30

 MAXIMUM STEPSIZE WHICH MEETS STABILITY CRITERION OF THE SINK & SOURCE TERM
 =  468.4    (WHEN MIN. R.F.=1)  AT K=   3, I=   1, J=  73

 MAXIMUM STEPSIZE WHICH MEETS STABILITY CRITERION OF THE DISPERSION TERM
 =  4.882    (WHEN MIN. R.F.=1)  AT K=  22, I=   1, J=  67
     1 CALLS TO GCG PACKAGE FOR TRANSPORT TIME STEP  32 IN FLOW TIME STEP   1 STRESS PERIOD   1
     6 TOTAL ITERATIONS
0WARNING: NUMERICAL OSCILLATION ENCOUNTERED
 ONE OR MORE CELL CONCENTRATIONS LESS THAN CRHOREF
 SMALLEST DENSITY =  0.100E+04
 AT CELL (I,J,K) = (   1,  69,   6)

 
 SOLVING FOR HEAD 


     2 CALLS TO PCG ROUTINE FOR TIME STEP   1 IN STRESS PERIOD    1
    11 TOTAL ITERATIONS

 MAXIMUM HEAD CHANGE FOR EACH ITERATION (1 INDICATES THE FIRST INNER ITERATION):

    HEAD CHANGE    HEAD CHANGE    HEAD CHANGE    HEAD CHANGE    HEAD CHANGE 
   LAYER,ROW,COL  LAYER,ROW,COL  LAYER,ROW,COL  LAYER,ROW,COL  LAYER,ROW,COL
 ---------------------------------------------------------------------------
  1 -0.2635E-01  0 -0.3447E-01  0  0.3523E-01  0 -0.2167E-01  0 -0.1003E-01
   ( 16,  1, 70)  (  9,  1, 12)  (  9,  1, 12)  ( 11,  1, 70)  ( 11,  1, 71)
  0  0.1422E-01  0  0.6258E-02  0 -0.3342E-02  0  0.1029E-02  0  0.7645E-03
   ( 11,  1, 70)  ( 11,  1, 71)  ( 11,  1, 70)  ( 11,  1, 69)  ( 11,  1, 70)
  1  0.3726E-03
   ( 11,  1, 67)

 MAXIMUM RESIDUAL FOR EACH ITERATION (1 INDICATES THE FIRST INNER ITERATION):

    RESIDUAL       RESIDUAL       RESIDUAL       RESIDUAL       RESIDUAL    
   LAYER,ROW,COL  LAYER,ROW,COL  LAYER,ROW,COL  LAYER,ROW,COL  LAYER,ROW,COL
 ---------------------------------------------------------------------------
  1 -0.5247E+06  0 -0.3088E+06  0  0.2012E+05  0  0.1622E+05  0  0.1097E+05
   ( 23,  1, 65)  ( 23,  1, 65)  ( 22,  1, 64)  ( 22,  1, 65)  ( 22,  1, 65)
  0   5336.      0   2403.      0   1455.      0   1072.      0   658.4    
   ( 22,  1, 64)  ( 22,  1, 64)  ( 22,  1, 64)  ( 22,  1, 64)  ( 22,  1, 64)
  1   568.0    
   ( 22,  1, 64)


 FLOW MODEL IS TRANSIENT
 FLOW MODEL CONTAINS CONSTANT-HEAD CELLS


 MAXIMUM STEPSIZE DURING WHICH ANY PARTICLE CANNOT MOVE MORE THAN ONE CELL
 =  29.98    (WHEN MIN. R.F.=1)  AT K=  21, I=   1, J=  64

 MAXIMUM STEPSIZE WHICH MEETS STABILITY CRITERION OF THE ADVECTION TERM
 (FOR PURE FINITE-DIFFERENCE OPTION, MIXELM=0) 
 =  18.97    (WHEN MIN. R.F.=1)  AT K=  23, I=   1, J=  64


 TOTAL NUMBER OF POINT SOURCES/SINKS PRESENT IN THE FLOW MODEL =    30

 MAXIMUM STEPSIZE WHICH MEETS STABILITY CRITERION OF THE SINK & SOURCE TERM
 =  447.7    (WHEN MIN. R.F.=1)  AT K=   3, I=   1, J=  73

 MAXIMUM STEPSIZE WHICH MEETS STABILITY CRITERION OF THE DISPERSION TERM
 =  5.071    (WHEN MIN. R.F.=1)  AT K=  22, I=   1, J=  67
     1 CALLS TO GCG PACKAGE FOR TRANSPORT TIME STEP  33 IN FLOW TIME STEP   1 STRESS PERIOD   1
     5 TOTAL ITERATIONS
0WARNING: NUMERICAL OSCILLATION ENCOUNTERED
 ONE OR MORE CELL CONCENTRATIONS LESS THAN CRHOREF
 SMALLEST DENSITY =  0.100E+04
 AT CELL (I,J,K) = (   1,  69,   6)

 
 SOLVING FOR HEAD 


     2 CALLS TO PCG ROUTINE FOR TIME STEP   1 IN STRESS PERIOD    1
    10 TOTAL ITERATIONS

 MAXIMUM HEAD CHANGE FOR EACH ITERATION (1 INDICATES THE FIRST INNER ITERATION):

    HEAD CHANGE    HEAD CHANGE    HEAD CHANGE    HEAD CHANGE    HEAD CHANGE 
   LAYER,ROW,COL  LAYER,ROW,COL  LAYER,ROW,COL  LAYER,ROW,COL  LAYER,ROW,COL
 ---------------------------------------------------------------------------
  1 -0.2436E-01  0 -0.3138E-01  0  0.3216E-01  0 -0.2299E-01  0 -0.1077E-01
   ( 23,  1, 72)  (  9,  1, 12)  (  9,  1, 12)  ( 11,  1, 70)  ( 11,  1, 71)
  0  0.1598E-01  0  0.6529E-02  0 -0.3050E-02  0  0.8341E-03  1  0.6546E-03
   ( 11,  1, 70)  ( 11,  1, 71)  ( 11,  1, 70)  ( 11,  1, 69)  ( 11,  1, 70)

 MAXIMUM RESIDUAL FOR EACH ITERATION (1 INDICATES THE FIRST INNER ITERATION):

    RESIDUAL       RESIDUAL       RESIDUAL       RESIDUAL       RESIDUAL    
   LAYER,ROW,COL  LAYER,ROW,COL  LAYER,ROW,COL  LAYER,ROW,COL  LAYER,ROW,COL
 ---------------------------------------------------------------------------
  1 -0.4063E+06  0 -0.2277E+06  0  0.2986E+05  0  0.2175E+05  0  0.1244E+05
   ( 23,  1, 65)  ( 23,  1, 65)  ( 22,  1, 64)  ( 22,  1, 64)  ( 22,  1, 64)
  0   5067.      0   2573.      0   1764.      0   1262.      1   1069.    
   ( 22,  1, 64)  ( 22,  1, 64)  ( 22,  1, 64)  ( 22,  1, 64)  ( 22,  1, 64)


 FLOW MODEL IS TRANSIENT
 FLOW MODEL CONTAINS CONSTANT-HEAD CELLS


 MAXIMUM STEPSIZE DURING WHICH ANY PARTICLE CANNOT MOVE MORE THAN ONE CELL
 =  32.15    (WHEN MIN. R.F.=1)  AT K=  23, I=   1, J=  65

 MAXIMUM STEPSIZE WHICH MEETS STABILITY CRITERION OF THE ADVECTION TERM
 (FOR PURE FINITE-DIFFERENCE OPTION, MIXELM=0) 
 =  19.68    (WHEN MIN. R.F.=1)  AT K=  23, I=   1, J=  64


 TOTAL NUMBER OF POINT SOURCES/SINKS PRESENT IN THE FLOW MODEL =    30

 MAXIMUM STEPSIZE WHICH MEETS STABILITY CRITERION OF THE SINK & SOURCE TERM
 =  431.3    (WHEN MIN. R.F.=1)  AT K=   3, I=   1, J=  73

 MAXIMUM STEPSIZE WHICH MEETS STABILITY CRITERION OF THE DISPERSION TERM
 =  5.240    (WHEN MIN. R.F.=1)  AT K=  22, I=   1, J=  66
     1 CALLS TO GCG PACKAGE FOR TRANSPORT TIME STEP  34 IN FLOW TIME STEP   1 STRESS PERIOD   1
     5 TOTAL ITERATIONS
0WARNING: NUMERICAL OSCILLATION ENCOUNTERED
 ONE OR MORE CELL CONCENTRATIONS LESS THAN CRHOREF
 SMALLEST DENSITY =  0.100E+04
 AT CELL (I,J,K) = (   1,  69,   6)

 
 SOLVING FOR HEAD 


     2 CALLS TO PCG ROUTINE FOR TIME STEP   1 IN STRESS PERIOD    1
    10 TOTAL ITERATIONS

 MAXIMUM HEAD CHANGE FOR EACH ITERATION (1 INDICATES THE FIRST INNER ITERATION):

    HEAD CHANGE    HEAD CHANGE    HEAD CHANGE    HEAD CHANGE    HEAD CHANGE 
   LAYER,ROW,COL  LAYER,ROW,COL  LAYER,ROW,COL  LAYER,ROW,COL  LAYER,ROW,COL
 ---------------------------------------------------------------------------
  1 -0.2254E-01  0 -0.2856E-01  0  0.2932E-01  0 -0.2691E-01  0 -0.1059E-01
   ( 23,  1, 73)  (  9,  1, 12)  (  9,  1, 12)  ( 11,  1, 70)  ( 11,  1, 71)
  0  0.1946E-01  0  0.6496E-02  0 -0.2382E-02  0 -0.7839E-03  1  0.6864E-03
   ( 11,  1, 70)  ( 11,  1, 71)  ( 11,  1, 70)  ( 11,  1, 67)  ( 11,  1, 70)

 MAXIMUM RESIDUAL FOR EACH ITERATION (1 INDICATES THE FIRST INNER ITERATION):

    RESIDUAL       RESIDUAL       RESIDUAL       RESIDUAL       RESIDUAL    
   LAYER,ROW,COL  LAYER,ROW,COL  LAYER,ROW,COL  LAYER,ROW,COL  LAYER,ROW,COL
 ---------------------------------------------------------------------------
  1 -0.3825E+06  0 -0.2261E+06  0  0.3512E+05  0  0.2381E+05  0  0.1074E+05
   ( 23,  1, 64)  ( 23,  1, 64)  ( 22,  1, 64)  ( 22,  1, 64)  ( 22,  1, 64)
  0   4089.      0   2466.      0   1881.      0   1341.      1   1163.    
   ( 22,  1, 64)  ( 22,  1, 64)  ( 22,  1, 64)  ( 22,  1, 64)  ( 22,  1, 64)


 FLOW MODEL IS TRANSIENT
 FLOW MODEL CONTAINS CONSTANT-HEAD CELLS


 MAXIMUM STEPSIZE DURING WHICH ANY PARTICLE CANNOT MOVE MORE THAN ONE CELL
 =  32.70    (WHEN MIN. R.F.=1)  AT K=  23, I=   1, J=  65

 MAXIMUM STEPSIZE WHICH MEETS STABILITY CRITERION OF THE ADVECTION TERM
 (FOR PURE FINITE-DIFFERENCE OPTION, MIXELM=0) 
 =  21.39    (WHEN MIN. R.F.=1)  AT K=  23, I=   1, J=  64


 TOTAL NUMBER OF POINT SOURCES/SINKS PRESENT IN THE FLOW MODEL =    30

 MAXIMUM STEPSIZE WHICH MEETS STABILITY CRITERION OF THE SINK & SOURCE TERM
 =  417.8    (WHEN MIN. R.F.=1)  AT K=   3, I=   1, J=  73

 MAXIMUM STEPSIZE WHICH MEETS STABILITY CRITERION OF THE DISPERSION TERM
 =  5.382    (WHEN MIN. R.F.=1)  AT K=  22, I=   1, J=  66
     1 CALLS TO GCG PACKAGE FOR TRANSPORT TIME STEP  35 IN FLOW TIME STEP   1 STRESS PERIOD   1
     5 TOTAL ITERATIONS
  MAXIMUM CONCENTRATION CHANGES FOR EACH ITERATION:
  MAX. CHANGE LAYER,ROW,COL MAX. CHANGE LAYER,ROW,COL MAX. CHANGE LAYER,ROW,COL MAX. CHANGE LAYER,ROW,COL MAX. CHANGE LAYER,ROW,COL
 ------------------------------------------------------------------------------------------------------------------------------------
   0.7850E-01 ( 16,  1, 90)  0.3664E-02 ( 16,  1, 90)  0.1571E-03 ( 23,  1, 66)  0.1112E-04 ( 23,  1, 66)  0.4520E-06 ( 23,  1, 66)
0WARNING: NUMERICAL OSCILLATION ENCOUNTERED
 ONE OR MORE CELL CONCENTRATIONS LESS THAN CRHOREF
 SMALLEST DENSITY =  0.100E+04
 AT CELL (I,J,K) = (   1,  69,   6)

 
 SOLVING FOR HEAD 


     2 CALLS TO PCG ROUTINE FOR TIME STEP   1 IN STRESS PERIOD    1
    10 TOTAL ITERATIONS

 MAXIMUM HEAD CHANGE FOR EACH ITERATION (1 INDICATES THE FIRST INNER ITERATION):

    HEAD CHANGE    HEAD CHANGE    HEAD CHANGE    HEAD CHANGE    HEAD CHANGE 
   LAYER,ROW,COL  LAYER,ROW,COL  LAYER,ROW,COL  LAYER,ROW,COL  LAYER,ROW,COL
 ---------------------------------------------------------------------------
  1 -0.2377E-01  0 -0.2861E-01  0  0.2957E-01  0 -0.3478E-01  0 -0.9522E-02
   ( 23,  1, 72)  (  9,  1, 12)  (  9,  1, 12)  ( 11,  1, 70)  ( 11,  1, 71)
  0  0.2163E-01  0  0.6321E-02  0 -0.2948E-02  0  0.8599E-03  1  0.6352E-03
   ( 11,  1, 70)  ( 11,  1, 71)  ( 11,  1, 70)  ( 11,  1, 69)  ( 11,  1, 70)

 MAXIMUM RESIDUAL FOR EACH ITERATION (1 INDICATES THE FIRST INNER ITERATION):

    RESIDUAL       RESIDUAL       RESIDUAL       RESIDUAL       RESIDUAL    
   LAYER,ROW,COL  LAYER,ROW,COL  LAYER,ROW,COL  LAYER,ROW,COL  LAYER,ROW,COL
 ---------------------------------------------------------------------------
  1 -0.3779E+06  0 -0.2391E+06  0 -0.5230E+05  0 -0.3093E+05  0   9106.    
   ( 23,  1, 64)  ( 23,  1, 64)  ( 22,  1, 74)  ( 22,  1, 74)  ( 22,  1, 64)
  0   3595.      0   2471.      0   1898.      0   1339.      1   1192.    
   ( 22,  1, 64)  ( 22,  1, 64)  ( 22,  1, 64)  ( 22,  1, 64)  ( 22,  1, 64)


 FLOW MODEL IS TRANSIENT
 FLOW MODEL CONTAINS CONSTANT-HEAD CELLS


 MAXIMUM STEPSIZE DURING WHICH ANY PARTICLE CANNOT MOVE MORE THAN ONE CELL
 =  33.57    (WHEN MIN. R.F.=1)  AT K=  23, I=   1, J=  65

 MAXIMUM STEPSIZE WHICH MEETS STABILITY CRITERION OF THE ADVECTION TERM
 (FOR PURE FINITE-DIFFERENCE OPTION, MIXELM=0) 
 =  24.02    (WHEN MIN. R.F.=1)  AT K=  23, I=   1, J=  64


 TOTAL NUMBER OF POINT SOURCES/SINKS PRESENT IN THE FLOW MODEL =    30

 MAXIMUM STEPSIZE WHICH MEETS STABILITY CRITERION OF THE SINK & SOURCE TERM
 =  405.7    (WHEN MIN. R.F.=1)  AT K=   3, I=   1, J=  73

 MAXIMUM STEPSIZE WHICH MEETS STABILITY CRITERION OF THE DISPERSION TERM
 =  5.522    (WHEN MIN. R.F.=1)  AT K=  22, I=   1, J=  66
     1 CALLS TO GCG PACKAGE FOR TRANSPORT TIME STEP  36 IN FLOW TIME STEP   1 STRESS PERIOD   1
     5 TOTAL ITERATIONS
0WARNING: NUMERICAL OSCILLATION ENCOUNTERED
 ONE OR MORE CELL CONCENTRATIONS LESS THAN CRHOREF
 SMALLEST DENSITY =  0.100E+04
 AT CELL (I,J,K) = (   1,  69,   6)

 
 SOLVING FOR HEAD 


     2 CALLS TO PCG ROUTINE FOR TIME STEP   1 IN STRESS PERIOD    1
    11 TOTAL ITERATIONS

 MAXIMUM HEAD CHANGE FOR EACH ITERATION (1 INDICATES THE FIRST INNER ITERATION):

    HEAD CHANGE    HEAD CHANGE    HEAD CHANGE    HEAD CHANGE    HEAD CHANGE 
   LAYER,ROW,COL  LAYER,ROW,COL  LAYER,ROW,COL  LAYER,ROW,COL  LAYER,ROW,COL
 ---------------------------------------------------------------------------
  1 -0.2803E-01  0 -0.3105E-01  0  0.3254E-01  0 -0.4388E-01  0 -0.1042E-01
   ( 23,  1, 73)  (  9,  1, 12)  (  9,  1, 12)  ( 11,  1, 70)  (  9,  1, 37)
  0  0.2692E-01  0  0.6748E-02  0 -0.3151E-02  0  0.1106E-02  0  0.9365E-03
   ( 11,  1, 70)  ( 11,  1, 71)  ( 11,  1, 70)  ( 11,  1, 69)  ( 11,  1, 70)
  1 -0.5487E-03
   ( 11,  1, 69)

 MAXIMUM RESIDUAL FOR EACH ITERATION (1 INDICATES THE FIRST INNER ITERATION):

    RESIDUAL       RESIDUAL       RESIDUAL       RESIDUAL       RESIDUAL    
   LAYER,ROW,COL  LAYER,ROW,COL  LAYER,ROW,COL  LAYER,ROW,COL  LAYER,ROW,COL
 ---------------------------------------------------------------------------
  1 -0.5243E+06  0 -0.3478E+06  0 -0.1045E+06  0  0.4117E+05  0  0.1034E+05
   ( 19,  1, 75)  ( 19,  1, 75)  ( 19,  1, 75)  ( 22,  1, 74)  ( 22,  1, 74)
  0  -4268.      0  -3368.      0   2698.      0   1898.      0   1020.    
   ( 18,  1, 76)  ( 18,  1, 76)  ( 19,  1, 75)  ( 19,  1, 75)  ( 19,  1, 75)
  1   1218.    
   ( 19,  1, 75)


 FLOW MODEL IS TRANSIENT
 FLOW MODEL CONTAINS CONSTANT-HEAD CELLS


 MAXIMUM STEPSIZE DURING WHICH ANY PARTICLE CANNOT MOVE MORE THAN ONE CELL
 =  34.67    (WHEN MIN. R.F.=1)  AT K=  23, I=   1, J=  65

 MAXIMUM STEPSIZE WHICH MEETS STABILITY CRITERION OF THE ADVECTION TERM
 (FOR PURE FINITE-DIFFERENCE OPTION, MIXELM=0) 
 =  24.14    (WHEN MIN. R.F.=1)  AT K=  23, I=   1, J=  63


 TOTAL NUMBER OF POINT SOURCES/SINKS PRESENT IN THE FLOW MODEL =    30

 MAXIMUM STEPSIZE WHICH MEETS STABILITY CRITERION OF THE SINK & SOURCE TERM
 =  394.2    (WHEN MIN. R.F.=1)  AT K=   3, I=   1, J=  73

 MAXIMUM STEPSIZE WHICH MEETS STABILITY CRITERION OF THE DISPERSION TERM
 =  5.681    (WHEN MIN. R.F.=1)  AT K=  22, I=   1, J=  66
     1 CALLS TO GCG PACKAGE FOR TRANSPORT TIME STEP  37 IN FLOW TIME STEP   1 STRESS PERIOD   1
     6 TOTAL ITERATIONS
0WARNING: NUMERICAL OSCILLATION ENCOUNTERED
 ONE OR MORE CELL CONCENTRATIONS LESS THAN CRHOREF
 SMALLEST DENSITY =  0.100E+04
 AT CELL (I,J,K) = (   1,  69,   6)

 
 SOLVING FOR HEAD 


     2 CALLS TO PCG ROUTINE FOR TIME STEP   1 IN STRESS PERIOD    1
    11 TOTAL ITERATIONS

 MAXIMUM HEAD CHANGE FOR EACH ITERATION (1 INDICATES THE FIRST INNER ITERATION):

    HEAD CHANGE    HEAD CHANGE    HEAD CHANGE    HEAD CHANGE    HEAD CHANGE 
   LAYER,ROW,COL  LAYER,ROW,COL  LAYER,ROW,COL  LAYER,ROW,COL  LAYER,ROW,COL
 ---------------------------------------------------------------------------
  1 -0.3392E-01  0 -0.3522E-01  0  0.3712E-01  0 -0.4901E-01  0  0.2150E-01
   ( 23,  1, 74)  (  9,  1, 12)  (  9,  1, 12)  ( 11,  1, 70)  ( 11,  1, 65)
  0  0.2598E-01  0  0.6538E-02  0  0.3613E-02  0  0.1223E-02  0 -0.9513E-03
   ( 11,  1, 70)  ( 11,  1, 71)  ( 11,  1, 71)  ( 11,  1, 69)  ( 11,  1, 71)
  1  0.7392E-03
   ( 11,  1, 67)

 MAXIMUM RESIDUAL FOR EACH ITERATION (1 INDICATES THE FIRST INNER ITERATION):

    RESIDUAL       RESIDUAL       RESIDUAL       RESIDUAL       RESIDUAL    
   LAYER,ROW,COL  LAYER,ROW,COL  LAYER,ROW,COL  LAYER,ROW,COL  LAYER,ROW,COL
 ---------------------------------------------------------------------------
  1 -0.4676E+06  0 -0.3467E+06  0 -0.1878E+06  0 -0.7231E+05  0  0.1105E+05
   ( 20,  1, 75)  ( 20,  1, 75)  ( 20,  1, 75)  ( 20,  1, 75)  ( 22,  1, 73)
  0   5215.      0   4586.      0   3541.      0   2391.      0   1183.    
   ( 19,  1, 74)  ( 19,  1, 74)  ( 19,  1, 74)  ( 19,  1, 74)  ( 19,  1, 74)
  1   985.7    
   ( 19,  1, 74)


 FLOW MODEL IS TRANSIENT
 FLOW MODEL CONTAINS CONSTANT-HEAD CELLS


 MAXIMUM STEPSIZE DURING WHICH ANY PARTICLE CANNOT MOVE MORE THAN ONE CELL
 =  28.31    (WHEN MIN. R.F.=1)  AT K=  20, I=   1, J=  74

 MAXIMUM STEPSIZE WHICH MEETS STABILITY CRITERION OF THE ADVECTION TERM
 (FOR PURE FINITE-DIFFERENCE OPTION, MIXELM=0) 
 =  20.36    (WHEN MIN. R.F.=1)  AT K=  18, I=   1, J=  74


 TOTAL NUMBER OF POINT SOURCES/SINKS PRESENT IN THE FLOW MODEL =    30

 MAXIMUM STEPSIZE WHICH MEETS STABILITY CRITERION OF THE SINK & SOURCE TERM
 =  383.1    (WHEN MIN. R.F.=1)  AT K=   3, I=   1, J=  73

 MAXIMUM STEPSIZE WHICH MEETS STABILITY CRITERION OF THE DISPERSION TERM
 =  5.836    (WHEN MIN. R.F.=1)  AT K=  22, I=   1, J=  66
     1 CALLS TO GCG PACKAGE FOR TRANSPORT TIME STEP  38 IN FLOW TIME STEP   1 STRESS PERIOD   1
     6 TOTAL ITERATIONS
0WARNING: NUMERICAL OSCILLATION ENCOUNTERED
 ONE OR MORE CELL CONCENTRATIONS LESS THAN CRHOREF
 SMALLEST DENSITY =  0.100E+04
 AT CELL (I,J,K) = (   1,  69,   6)

 
 SOLVING FOR HEAD 


     2 CALLS TO PCG ROUTINE FOR TIME STEP   1 IN STRESS PERIOD    1
    11 TOTAL ITERATIONS

 MAXIMUM HEAD CHANGE FOR EACH ITERATION (1 INDICATES THE FIRST INNER ITERATION):

    HEAD CHANGE    HEAD CHANGE    HEAD CHANGE    HEAD CHANGE    HEAD CHANGE 
   LAYER,ROW,COL  LAYER,ROW,COL  LAYER,ROW,COL  LAYER,ROW,COL  LAYER,ROW,COL
 ---------------------------------------------------------------------------
  1 -0.4347E-01  0 -0.3911E-01  0  0.4116E-01  0 -0.5039E-01  0  0.2933E-01
   ( 15,  1, 74)  (  9,  1, 12)  (  9,  1, 12)  ( 11,  1, 70)  ( 11,  1, 65)
  0  0.2020E-01  0  0.6944E-02  0  0.3309E-02  0 -0.1482E-02  0 -0.1307E-02
   ( 11,  1, 70)  ( 11,  1, 71)  ( 11,  1, 71)  ( 11,  1, 70)  ( 11,  1, 71)
  1  0.8756E-03
   ( 11,  1, 67)

 MAXIMUM RESIDUAL FOR EACH ITERATION (1 INDICATES THE FIRST INNER ITERATION):

    RESIDUAL       RESIDUAL       RESIDUAL       RESIDUAL       RESIDUAL    
   LAYER,ROW,COL  LAYER,ROW,COL  LAYER,ROW,COL  LAYER,ROW,COL  LAYER,ROW,COL
 ---------------------------------------------------------------------------
  1 -0.6402E+06  0 -0.5242E+06  0 -0.3889E+06  0 -0.1061E+06  0 -0.1015E+05
   ( 20,  1, 74)  ( 20,  1, 74)  ( 20,  1, 74)  ( 20,  1, 73)  ( 22,  1, 73)
  0   7445.      0   5915.      0   4242.      0   2293.      0   948.1    
   ( 19,  1, 73)  ( 19,  1, 73)  ( 19,  1, 73)  ( 19,  1, 73)  ( 19,  1, 73)
  1   1928.    
   ( 19,  1, 73)


 FLOW MODEL IS TRANSIENT
 FLOW MODEL CONTAINS CONSTANT-HEAD CELLS


 MAXIMUM STEPSIZE DURING WHICH ANY PARTICLE CANNOT MOVE MORE THAN ONE CELL
 =  15.17    (WHEN MIN. R.F.=1)  AT K=  19, I=   1, J=  74

 MAXIMUM STEPSIZE WHICH MEETS STABILITY CRITERION OF THE ADVECTION TERM
 (FOR PURE FINITE-DIFFERENCE OPTION, MIXELM=0) 
 =  12.17    (WHEN MIN. R.F.=1)  AT K=  18, I=   1, J=  74


 TOTAL NUMBER OF POINT SOURCES/SINKS PRESENT IN THE FLOW MODEL =    30

 MAXIMUM STEPSIZE WHICH MEETS STABILITY CRITERION OF THE SINK & SOURCE TERM
 =  373.5    (WHEN MIN. R.F.=1)  AT K=   3, I=   1, J=  73

 MAXIMUM STEPSIZE WHICH MEETS STABILITY CRITERION OF THE DISPERSION TERM
 =  3.725    (WHEN MIN. R.F.=1)  AT K=  19, I=   1, J=  74
     1 CALLS TO GCG PACKAGE FOR TRANSPORT TIME STEP  39 IN FLOW TIME STEP   1 STRESS PERIOD   1
     6 TOTAL ITERATIONS
0WARNING: NUMERICAL OSCILLATION ENCOUNTERED
 ONE OR MORE CELL CONCENTRATIONS LESS THAN CRHOREF
 SMALLEST DENSITY =  0.100E+04
 AT CELL (I,J,K) = (   1,  69,   6)

 
 SOLVING FOR HEAD 


     2 CALLS TO PCG ROUTINE FOR TIME STEP   1 IN STRESS PERIOD    1
    11 TOTAL ITERATIONS

 MAXIMUM HEAD CHANGE FOR EACH ITERATION (1 INDICATES THE FIRST INNER ITERATION):

    HEAD CHANGE    HEAD CHANGE    HEAD CHANGE    HEAD CHANGE    HEAD CHANGE 
   LAYER,ROW,COL  LAYER,ROW,COL  LAYER,ROW,COL  LAYER,ROW,COL  LAYER,ROW,COL
 ---------------------------------------------------------------------------
  1 -0.5071E-01  0 -0.3816E-01  0  0.3963E-01  0 -0.3398E-01  0  0.1919E-01
   ( 15,  1, 73)  (  9,  1, 12)  ( 10,  1, 12)  ( 11,  1, 70)  ( 11,  1, 65)
  0  0.1048E-01  0  0.3725E-02  0  0.1814E-02  0 -0.2627E-02  0  0.1434E-02
   ( 11,  1, 70)  ( 11,  1, 71)  ( 11,  1, 71)  ( 11,  1, 70)  ( 11,  1, 70)
  1  0.3631E-03
   ( 11,  1, 67)

 MAXIMUM RESIDUAL FOR EACH ITERATION (1 INDICATES THE FIRST INNER ITERATION):

    RESIDUAL       RESIDUAL       RESIDUAL       RESIDUAL       RESIDUAL    
   LAYER,ROW,COL  LAYER,ROW,COL  LAYER,ROW,COL  LAYER,ROW,COL  LAYER,ROW,COL
 ---------------------------------------------------------------------------
  1 -0.5891E+06  0 -0.4428E+06  0 -0.4126E+06  0 -0.1242E+06  0  -7512.    
   ( 20,  1, 73)  ( 20,  1, 73)  ( 20,  1, 72)  ( 20,  1, 72)  ( 22,  1, 72)
  0   6868.      0   4929.      0   3103.      0   1177.      0  -427.0    
   ( 19,  1, 72)  ( 19,  1, 72)  ( 19,  1, 72)  ( 19,  1, 72)  ( 18,  1, 77)
  1   1358.    
   ( 19,  1, 72)


 FLOW MODEL IS TRANSIENT
 FLOW MODEL CONTAINS CONSTANT-HEAD CELLS


 MAXIMUM STEPSIZE DURING WHICH ANY PARTICLE CANNOT MOVE MORE THAN ONE CELL
 =  12.80    (WHEN MIN. R.F.=1)  AT K=  20, I=   1, J=  74

 MAXIMUM STEPSIZE WHICH MEETS STABILITY CRITERION OF THE ADVECTION TERM
 (FOR PURE FINITE-DIFFERENCE OPTION, MIXELM=0) 
 =  10.79    (WHEN MIN. R.F.=1)  AT K=  21, I=   1, J=  74


 TOTAL NUMBER OF POINT SOURCES/SINKS PRESENT IN THE FLOW MODEL =    30

 MAXIMUM STEPSIZE WHICH MEETS STABILITY CRITERION OF THE SINK & SOURCE TERM
 =  366.5    (WHEN MIN. R.F.=1)  AT K=   3, I=   1, J=  73

 MAXIMUM STEPSIZE WHICH MEETS STABILITY CRITERION OF THE DISPERSION TERM
 =  3.106    (WHEN MIN. R.F.=1)  AT K=  19, I=   1, J=  73
     1 CALLS TO GCG PACKAGE FOR TRANSPORT TIME STEP  40 IN FLOW TIME STEP   1 STRESS PERIOD   1
     5 TOTAL ITERATIONS
  MAXIMUM CONCENTRATION CHANGES FOR EACH ITERATION:
  MAX. CHANGE LAYER,ROW,COL MAX. CHANGE LAYER,ROW,COL MAX. CHANGE LAYER,ROW,COL MAX. CHANGE LAYER,ROW,COL MAX. CHANGE LAYER,ROW,COL
 ------------------------------------------------------------------------------------------------------------------------------------
   0.5030E-01 ( 16,  1, 90)  0.2762E-02 ( 16,  1, 90)  0.1729E-03 ( 20,  1, 73)  0.6181E-05 ( 20,  1, 73)  0.2697E-06 ( 20,  1, 75)



 >>>>>>>>>>>>>>>>>>>>>>>>>>>>>>>>>>>>>>>>>>>>>>>>>>>>>>>FOR COMPONENT NO. 01<<<<<<<<<<<<<<<<<<<<<<<<<<<<<<<<<<<<<<<<<<<<<<<<<<<<<<<


                                            -------------------------------------------
                                                      TRANSPORT STEP NO.   40
                                            -------------------------------------------

 TOTAL ELAPSED TIME SINCE BEGINNING OF SIMULATION =   232.8089    D   
 .....................................................................

                     CUMMULATIVE MASS BUDGETS AT END OF TRANSPORT STEP   40, TIME STEP    1, STRESS PERIOD    1
                     ------------------------------------------------------------------------------------------

                                                             IN                           OUT
                                                      ----------------             ----------------
                               CONSTANT CONCENTRATION:    0.000000                    0.000000    
                                        CONSTANT HEAD:    499585.7                   -2071428.    
                                             RECHARGE:    0.000000                    0.000000    
                                MASS STORAGE (SOLUTE):   0.1191362E+08              -0.1034175E+08
                            ---------------------------------------------------------------------------
                                              [TOTAL]:   0.1241427E+08 KG           -0.1241427E+08 KG  

                                                          NET (IN - OUT):   0.2548113    
                                                   DISCREPANCY (PERCENT):   0.2052569E-05
0WARNING: NUMERICAL OSCILLATION ENCOUNTERED
 ONE OR MORE CELL CONCENTRATIONS LESS THAN CRHOREF
 SMALLEST DENSITY =  0.100E+04
 AT CELL (I,J,K) = (   1,  69,   6)

 
 SOLVING FOR HEAD 


     2 CALLS TO PCG ROUTINE FOR TIME STEP   1 IN STRESS PERIOD    1
    11 TOTAL ITERATIONS

 MAXIMUM HEAD CHANGE FOR EACH ITERATION (1 INDICATES THE FIRST INNER ITERATION):

    HEAD CHANGE    HEAD CHANGE    HEAD CHANGE    HEAD CHANGE    HEAD CHANGE 
   LAYER,ROW,COL  LAYER,ROW,COL  LAYER,ROW,COL  LAYER,ROW,COL  LAYER,ROW,COL
 ---------------------------------------------------------------------------
  1 -0.2995E-01  0 -0.2392E-01  0  0.2430E-01  0 -0.1849E-01  0  0.8555E-02
   ( 15,  1, 74)  (  9,  1, 12)  ( 10,  1, 12)  ( 11,  1, 70)  ( 11,  1, 65)
  0  0.5250E-02  0  0.2623E-02  0  0.1540E-02  0 -0.1699E-02  0 -0.8544E-03
   ( 11,  1, 70)  ( 11,  1, 70)  ( 11,  1, 71)  ( 11,  1, 70)  ( 11,  1, 71)
  1  0.2049E-03
   ( 11,  1, 70)

 MAXIMUM RESIDUAL FOR EACH ITERATION (1 INDICATES THE FIRST INNER ITERATION):

    RESIDUAL       RESIDUAL       RESIDUAL       RESIDUAL       RESIDUAL    
   LAYER,ROW,COL  LAYER,ROW,COL  LAYER,ROW,COL  LAYER,ROW,COL  LAYER,ROW,COL
 ---------------------------------------------------------------------------
  1 -0.2822E+06  0 -0.2758E+06  0 -0.2704E+06  0 -0.8368E+05  0  -4530.    
   ( 20,  1, 71)  ( 20,  1, 71)  ( 20,  1, 71)  ( 20,  1, 71)  ( 21,  1, 70)
  0  -4007.      0   2992.      0   1856.      0   638.8      0   248.7    
   ( 21,  1, 70)  ( 19,  1, 71)  ( 19,  1, 71)  ( 19,  1, 71)  ( 19,  1, 71)
  1   495.0    
   ( 19,  1, 71)


 FLOW MODEL IS TRANSIENT
 FLOW MODEL CONTAINS CONSTANT-HEAD CELLS


 MAXIMUM STEPSIZE DURING WHICH ANY PARTICLE CANNOT MOVE MORE THAN ONE CELL
 =  38.41    (WHEN MIN. R.F.=1)  AT K=  23, I=   1, J=  64

 MAXIMUM STEPSIZE WHICH MEETS STABILITY CRITERION OF THE ADVECTION TERM
 (FOR PURE FINITE-DIFFERENCE OPTION, MIXELM=0) 
 =  25.50    (WHEN MIN. R.F.=1)  AT K=  23, I=   1, J=  63


 TOTAL NUMBER OF POINT SOURCES/SINKS PRESENT IN THE FLOW MODEL =    30

 MAXIMUM STEPSIZE WHICH MEETS STABILITY CRITERION OF THE SINK & SOURCE TERM
 =  362.8    (WHEN MIN. R.F.=1)  AT K=   3, I=   1, J=  73

 MAXIMUM STEPSIZE WHICH MEETS STABILITY CRITERION OF THE DISPERSION TERM
 =  6.009    (WHEN MIN. R.F.=1)  AT K=  16, I=   1, J=  71
     1 CALLS TO GCG PACKAGE FOR TRANSPORT TIME STEP  41 IN FLOW TIME STEP   1 STRESS PERIOD   1
     4 TOTAL ITERATIONS
0WARNING: NUMERICAL OSCILLATION ENCOUNTERED
 ONE OR MORE CELL CONCENTRATIONS LESS THAN CRHOREF
 SMALLEST DENSITY =  0.100E+04
 AT CELL (I,J,K) = (   1,  69,   6)

 
 SOLVING FOR HEAD 


     2 CALLS TO PCG ROUTINE FOR TIME STEP   1 IN STRESS PERIOD    1
    10 TOTAL ITERATIONS

 MAXIMUM HEAD CHANGE FOR EACH ITERATION (1 INDICATES THE FIRST INNER ITERATION):

    HEAD CHANGE    HEAD CHANGE    HEAD CHANGE    HEAD CHANGE    HEAD CHANGE 
   LAYER,ROW,COL  LAYER,ROW,COL  LAYER,ROW,COL  LAYER,ROW,COL  LAYER,ROW,COL
 ---------------------------------------------------------------------------
  1 -0.1485E-01  0 -0.1264E-01  0  0.1325E-01  0 -0.1844E-01  0  0.7215E-02
   ( 15,  1, 71)  (  9,  1, 12)  (  9,  1, 12)  ( 11,  1, 66)  ( 11,  1, 65)
  0  0.1154E-01  0  0.1872E-02  0  0.1474E-02  0  0.4182E-03  1  0.2934E-03
   ( 11,  1, 70)  ( 11,  1, 71)  ( 11,  1, 71)  ( 11,  1, 69)  ( 11,  1, 70)

 MAXIMUM RESIDUAL FOR EACH ITERATION (1 INDICATES THE FIRST INNER ITERATION):

    RESIDUAL       RESIDUAL       RESIDUAL       RESIDUAL       RESIDUAL    
   LAYER,ROW,COL  LAYER,ROW,COL  LAYER,ROW,COL  LAYER,ROW,COL  LAYER,ROW,COL
 ---------------------------------------------------------------------------
  1 -0.1423E+06  0 -0.1149E+06  0 -0.7878E+05  0  0.3218E+05  0   6054.    
   ( 21,  1, 71)  ( 21,  1, 71)  ( 22,  1, 74)  ( 23,  1, 71)  ( 23,  1, 71)
  0   1560.      0  -1360.      0  -959.5      0  -638.3      1   600.7    
   ( 22,  1, 63)  ( 19,  1, 71)  ( 19,  1, 71)  ( 19,  1, 71)  ( 22,  1, 63)


 FLOW MODEL IS TRANSIENT
 FLOW MODEL CONTAINS CONSTANT-HEAD CELLS


 MAXIMUM STEPSIZE DURING WHICH ANY PARTICLE CANNOT MOVE MORE THAN ONE CELL
 =  38.77    (WHEN MIN. R.F.=1)  AT K=  23, I=   1, J=  64

 MAXIMUM STEPSIZE WHICH MEETS STABILITY CRITERION OF THE ADVECTION TERM
 (FOR PURE FINITE-DIFFERENCE OPTION, MIXELM=0) 
 =  25.80    (WHEN MIN. R.F.=1)  AT K=   2, I=   1, J=  71


 TOTAL NUMBER OF POINT SOURCES/SINKS PRESENT IN THE FLOW MODEL =    30

 MAXIMUM STEPSIZE WHICH MEETS STABILITY CRITERION OF THE SINK & SOURCE TERM
 =  359.6    (WHEN MIN. R.F.=1)  AT K=   3, I=   1, J=  73

 MAXIMUM STEPSIZE WHICH MEETS STABILITY CRITERION OF THE DISPERSION TERM
 =  6.164    (WHEN MIN. R.F.=1)  AT K=  16, I=   1, J=  80
     1 CALLS TO GCG PACKAGE FOR TRANSPORT TIME STEP  42 IN FLOW TIME STEP   1 STRESS PERIOD   1
     5 TOTAL ITERATIONS
0WARNING: NUMERICAL OSCILLATION ENCOUNTERED
 ONE OR MORE CELL CONCENTRATIONS LESS THAN CRHOREF
 SMALLEST DENSITY =  0.100E+04
 AT CELL (I,J,K) = (   1,  69,   6)

 
 SOLVING FOR HEAD 


     2 CALLS TO PCG ROUTINE FOR TIME STEP   1 IN STRESS PERIOD    1
    10 TOTAL ITERATIONS

 MAXIMUM HEAD CHANGE FOR EACH ITERATION (1 INDICATES THE FIRST INNER ITERATION):

    HEAD CHANGE    HEAD CHANGE    HEAD CHANGE    HEAD CHANGE    HEAD CHANGE 
   LAYER,ROW,COL  LAYER,ROW,COL  LAYER,ROW,COL  LAYER,ROW,COL  LAYER,ROW,COL
 ---------------------------------------------------------------------------
  1 -0.3083E-01  0 -0.2959E-01  0  0.3150E-01  0 -0.1481E-01  0 -0.1429E-01
   ( 19,  1, 70)  (  9,  1, 12)  (  9,  1, 12)  ( 11,  1, 66)  ( 11,  1, 70)
  0  0.1489E-01  0  0.4017E-02  0 -0.3986E-02  0  0.7887E-03  1  0.8429E-03
   ( 11,  1, 70)  ( 11,  1, 71)  ( 11,  1, 70)  ( 11,  1, 69)  ( 11,  1, 70)

 MAXIMUM RESIDUAL FOR EACH ITERATION (1 INDICATES THE FIRST INNER ITERATION):

    RESIDUAL       RESIDUAL       RESIDUAL       RESIDUAL       RESIDUAL    
   LAYER,ROW,COL  LAYER,ROW,COL  LAYER,ROW,COL  LAYER,ROW,COL  LAYER,ROW,COL
 ---------------------------------------------------------------------------
  1  0.2879E+06  0  0.2092E+06  0  0.2720E+05  0  0.2313E+05  0  0.1492E+05
   ( 20,  1, 73)  ( 20,  1, 73)  ( 22,  1, 63)  ( 22,  1, 63)  ( 22,  1, 63)
  0   4396.      0  -2421.      0  -1575.      0  -1111.      1  -988.3    
   ( 22,  1, 63)  ( 20,  1, 74)  ( 20,  1, 74)  ( 20,  1, 74)  ( 20,  1, 74)


 FLOW MODEL IS TRANSIENT
 FLOW MODEL CONTAINS CONSTANT-HEAD CELLS


 MAXIMUM STEPSIZE DURING WHICH ANY PARTICLE CANNOT MOVE MORE THAN ONE CELL
 =  39.83    (WHEN MIN. R.F.=1)  AT K=  23, I=   1, J=  64

 MAXIMUM STEPSIZE WHICH MEETS STABILITY CRITERION OF THE ADVECTION TERM
 (FOR PURE FINITE-DIFFERENCE OPTION, MIXELM=0) 
 =  25.74    (WHEN MIN. R.F.=1)  AT K=   2, I=   1, J=  71


 TOTAL NUMBER OF POINT SOURCES/SINKS PRESENT IN THE FLOW MODEL =    30

 MAXIMUM STEPSIZE WHICH MEETS STABILITY CRITERION OF THE SINK & SOURCE TERM
 =  352.6    (WHEN MIN. R.F.=1)  AT K=   3, I=   1, J=  73

 MAXIMUM STEPSIZE WHICH MEETS STABILITY CRITERION OF THE DISPERSION TERM
 =  6.228    (WHEN MIN. R.F.=1)  AT K=  16, I=   1, J=  80
     1 CALLS TO GCG PACKAGE FOR TRANSPORT TIME STEP  43 IN FLOW TIME STEP   1 STRESS PERIOD   1
     5 TOTAL ITERATIONS
0WARNING: NUMERICAL OSCILLATION ENCOUNTERED
 ONE OR MORE CELL CONCENTRATIONS LESS THAN CRHOREF
 SMALLEST DENSITY =  0.100E+04
 AT CELL (I,J,K) = (   1,  69,   6)

 
 SOLVING FOR HEAD 


     2 CALLS TO PCG ROUTINE FOR TIME STEP   1 IN STRESS PERIOD    1
    10 TOTAL ITERATIONS

 MAXIMUM HEAD CHANGE FOR EACH ITERATION (1 INDICATES THE FIRST INNER ITERATION):

    HEAD CHANGE    HEAD CHANGE    HEAD CHANGE    HEAD CHANGE    HEAD CHANGE 
   LAYER,ROW,COL  LAYER,ROW,COL  LAYER,ROW,COL  LAYER,ROW,COL  LAYER,ROW,COL
 ---------------------------------------------------------------------------
  1 -0.2862E-01  0 -0.2699E-01  0  0.2866E-01  0 -0.1586E-01  0 -0.1666E-01
   ( 23,  1, 70)  (  9,  1, 12)  (  9,  1, 12)  ( 11,  1, 65)  ( 11,  1, 70)
  0  0.1721E-01  0  0.4068E-02  0 -0.3595E-02  0  0.6535E-03  1  0.8560E-03
   ( 11,  1, 70)  ( 11,  1, 71)  ( 11,  1, 70)  ( 11,  1, 69)  ( 11,  1, 70)

 MAXIMUM RESIDUAL FOR EACH ITERATION (1 INDICATES THE FIRST INNER ITERATION):

    RESIDUAL       RESIDUAL       RESIDUAL       RESIDUAL       RESIDUAL    
   LAYER,ROW,COL  LAYER,ROW,COL  LAYER,ROW,COL  LAYER,ROW,COL  LAYER,ROW,COL
 ---------------------------------------------------------------------------
  1  0.2643E+06  0  0.1993E+06  0 -0.2731E+05  0 -0.2209E+05  0 -0.1137E+05
   ( 20,  1, 73)  ( 20,  1, 73)  ( 22,  1, 70)  ( 22,  1, 70)  ( 22,  1, 70)
  0  -3310.      0  -2463.      0  -1740.      0  -1240.      1   1070.    
   ( 19,  1, 71)  ( 19,  1, 71)  ( 19,  1, 71)  ( 19,  1, 71)  ( 21,  1, 70)


 FLOW MODEL IS TRANSIENT
 FLOW MODEL CONTAINS CONSTANT-HEAD CELLS


 MAXIMUM STEPSIZE DURING WHICH ANY PARTICLE CANNOT MOVE MORE THAN ONE CELL
 =  40.97    (WHEN MIN. R.F.=1)  AT K=  21, I=   1, J=  62

 MAXIMUM STEPSIZE WHICH MEETS STABILITY CRITERION OF THE ADVECTION TERM
 (FOR PURE FINITE-DIFFERENCE OPTION, MIXELM=0) 
 =  25.69    (WHEN MIN. R.F.=1)  AT K=   2, I=   1, J=  71


 TOTAL NUMBER OF POINT SOURCES/SINKS PRESENT IN THE FLOW MODEL =    30

 MAXIMUM STEPSIZE WHICH MEETS STABILITY CRITERION OF THE SINK & SOURCE TERM
 =  346.4    (WHEN MIN. R.F.=1)  AT K=   3, I=   1, J=  73

 MAXIMUM STEPSIZE WHICH MEETS STABILITY CRITERION OF THE DISPERSION TERM
 =  6.307    (WHEN MIN. R.F.=1)  AT K=  16, I=   1, J=  81
     1 CALLS TO GCG PACKAGE FOR TRANSPORT TIME STEP  44 IN FLOW TIME STEP   1 STRESS PERIOD   1
     5 TOTAL ITERATIONS
0WARNING: NUMERICAL OSCILLATION ENCOUNTERED
 ONE OR MORE CELL CONCENTRATIONS LESS THAN CRHOREF
 SMALLEST DENSITY =  0.100E+04
 AT CELL (I,J,K) = (   1,  69,   5)

 
 SOLVING FOR HEAD 


     2 CALLS TO PCG ROUTINE FOR TIME STEP   1 IN STRESS PERIOD    1
    10 TOTAL ITERATIONS

 MAXIMUM HEAD CHANGE FOR EACH ITERATION (1 INDICATES THE FIRST INNER ITERATION):

    HEAD CHANGE    HEAD CHANGE    HEAD CHANGE    HEAD CHANGE    HEAD CHANGE 
   LAYER,ROW,COL  LAYER,ROW,COL  LAYER,ROW,COL  LAYER,ROW,COL  LAYER,ROW,COL
 ---------------------------------------------------------------------------
  1 -0.2619E-01  0 -0.2485E-01  0  0.2629E-01  0 -0.1946E-01  0 -0.1784E-01
   ( 16,  1, 70)  (  9,  1, 12)  (  9,  1, 12)  ( 11,  1, 65)  ( 11,  1, 70)
  0  0.2111E-01  0  0.4124E-02  0  0.3515E-02  0  0.6438E-03  1  0.7666E-03
   ( 11,  1, 70)  ( 11,  1, 71)  ( 11,  1, 71)  ( 11,  1, 69)  ( 11,  1, 70)

 MAXIMUM RESIDUAL FOR EACH ITERATION (1 INDICATES THE FIRST INNER ITERATION):

    RESIDUAL       RESIDUAL       RESIDUAL       RESIDUAL       RESIDUAL    
   LAYER,ROW,COL  LAYER,ROW,COL  LAYER,ROW,COL  LAYER,ROW,COL  LAYER,ROW,COL
 ---------------------------------------------------------------------------
  1 -0.2562E+06  0 -0.1977E+06  0 -0.3986E+05  0 -0.3069E+05  0 -0.1252E+05
   ( 23,  1, 63)  ( 23,  1, 63)  ( 17,  1, 70)  ( 22,  1, 69)  ( 22,  1, 69)
  0   2805.      0   2083.      0   1588.      0   1162.      1   1041.    
   ( 22,  1, 62)  ( 22,  1, 62)  ( 21,  1, 71)  ( 21,  1, 71)  ( 21,  1, 71)


 FLOW MODEL IS TRANSIENT
 FLOW MODEL CONTAINS CONSTANT-HEAD CELLS


 MAXIMUM STEPSIZE DURING WHICH ANY PARTICLE CANNOT MOVE MORE THAN ONE CELL
 =  41.86    (WHEN MIN. R.F.=1)  AT K=  21, I=   1, J=  62

 MAXIMUM STEPSIZE WHICH MEETS STABILITY CRITERION OF THE ADVECTION TERM
 (FOR PURE FINITE-DIFFERENCE OPTION, MIXELM=0) 
 =  25.65    (WHEN MIN. R.F.=1)  AT K=   2, I=   1, J=  71


 TOTAL NUMBER OF POINT SOURCES/SINKS PRESENT IN THE FLOW MODEL =    30

 MAXIMUM STEPSIZE WHICH MEETS STABILITY CRITERION OF THE SINK & SOURCE TERM
 =  341.0    (WHEN MIN. R.F.=1)  AT K=   3, I=   1, J=  73

 MAXIMUM STEPSIZE WHICH MEETS STABILITY CRITERION OF THE DISPERSION TERM
 =  6.378    (WHEN MIN. R.F.=1)  AT K=  16, I=   1, J=  81
     1 CALLS TO GCG PACKAGE FOR TRANSPORT TIME STEP  45 IN FLOW TIME STEP   1 STRESS PERIOD   1
     5 TOTAL ITERATIONS
  MAXIMUM CONCENTRATION CHANGES FOR EACH ITERATION:
  MAX. CHANGE LAYER,ROW,COL MAX. CHANGE LAYER,ROW,COL MAX. CHANGE LAYER,ROW,COL MAX. CHANGE LAYER,ROW,COL MAX. CHANGE LAYER,ROW,COL
 ------------------------------------------------------------------------------------------------------------------------------------
   0.9918E-01 ( 16,  1, 90)  0.3807E-02 ( 16,  1, 90)  0.1131E-03 ( 23,  1, 65)  0.1080E-04 ( 23,  1, 65)  0.4528E-06 ( 23,  1, 65)
0WARNING: NUMERICAL OSCILLATION ENCOUNTERED
 ONE OR MORE CELL CONCENTRATIONS LESS THAN CRHOREF
 SMALLEST DENSITY =  0.100E+04
 AT CELL (I,J,K) = (   1,  69,   5)

 
 SOLVING FOR HEAD 


     2 CALLS TO PCG ROUTINE FOR TIME STEP   1 IN STRESS PERIOD    1
    10 TOTAL ITERATIONS

 MAXIMUM HEAD CHANGE FOR EACH ITERATION (1 INDICATES THE FIRST INNER ITERATION):

    HEAD CHANGE    HEAD CHANGE    HEAD CHANGE    HEAD CHANGE    HEAD CHANGE 
   LAYER,ROW,COL  LAYER,ROW,COL  LAYER,ROW,COL  LAYER,ROW,COL  LAYER,ROW,COL
 ---------------------------------------------------------------------------
  1 -0.2531E-01  0 -0.2345E-01  0  0.2479E-01  0 -0.2566E-01  0 -0.1693E-01
   ( 16,  1, 69)  (  9,  1, 12)  (  9,  1, 12)  ( 11,  1, 65)  ( 11,  1, 70)
  0  0.2466E-01  0  0.3620E-02  0  0.3095E-02  0  0.6167E-03  1  0.7467E-03
   ( 11,  1, 70)  ( 11,  1, 71)  ( 11,  1, 71)  ( 11,  1, 72)  ( 11,  1, 70)

 MAXIMUM RESIDUAL FOR EACH ITERATION (1 INDICATES THE FIRST INNER ITERATION):

    RESIDUAL       RESIDUAL       RESIDUAL       RESIDUAL       RESIDUAL    
   LAYER,ROW,COL  LAYER,ROW,COL  LAYER,ROW,COL  LAYER,ROW,COL  LAYER,ROW,COL
 ---------------------------------------------------------------------------
  1 -0.2274E+06  0 -0.1796E+06  0 -0.5903E+05  0 -0.4015E+05  0 -0.1048E+05
   ( 23,  1, 63)  ( 23,  1, 63)  ( 22,  1, 70)  ( 22,  1, 70)  ( 22,  1, 70)
  0   2865.      0   2225.      0   1559.      0   1101.      1   962.8    
   ( 22,  1, 62)  ( 22,  1, 62)  ( 22,  1, 62)  ( 22,  1, 62)  ( 22,  1, 62)


 FLOW MODEL IS TRANSIENT
 FLOW MODEL CONTAINS CONSTANT-HEAD CELLS


 MAXIMUM STEPSIZE DURING WHICH ANY PARTICLE CANNOT MOVE MORE THAN ONE CELL
 =  42.46    (WHEN MIN. R.F.=1)  AT K=   2, I=   1, J=  71

 MAXIMUM STEPSIZE WHICH MEETS STABILITY CRITERION OF THE ADVECTION TERM
 (FOR PURE FINITE-DIFFERENCE OPTION, MIXELM=0) 
 =  25.62    (WHEN MIN. R.F.=1)  AT K=   2, I=   1, J=  71


 TOTAL NUMBER OF POINT SOURCES/SINKS PRESENT IN THE FLOW MODEL =    30

 MAXIMUM STEPSIZE WHICH MEETS STABILITY CRITERION OF THE SINK & SOURCE TERM
 =  336.1    (WHEN MIN. R.F.=1)  AT K=   3, I=   1, J=  73

 MAXIMUM STEPSIZE WHICH MEETS STABILITY CRITERION OF THE DISPERSION TERM
 =  6.424    (WHEN MIN. R.F.=1)  AT K=  16, I=   1, J=  81
     1 CALLS TO GCG PACKAGE FOR TRANSPORT TIME STEP  46 IN FLOW TIME STEP   1 STRESS PERIOD   1
     5 TOTAL ITERATIONS
0WARNING: NUMERICAL OSCILLATION ENCOUNTERED
 ONE OR MORE CELL CONCENTRATIONS LESS THAN CRHOREF
 SMALLEST DENSITY =  0.100E+04
 AT CELL (I,J,K) = (   1,  69,   5)

 
 SOLVING FOR HEAD 


     2 CALLS TO PCG ROUTINE FOR TIME STEP   1 IN STRESS PERIOD    1
    10 TOTAL ITERATIONS

 MAXIMUM HEAD CHANGE FOR EACH ITERATION (1 INDICATES THE FIRST INNER ITERATION):

    HEAD CHANGE    HEAD CHANGE    HEAD CHANGE    HEAD CHANGE    HEAD CHANGE 
   LAYER,ROW,COL  LAYER,ROW,COL  LAYER,ROW,COL  LAYER,ROW,COL  LAYER,ROW,COL
 ---------------------------------------------------------------------------
  1 -0.2495E-01  0 -0.2293E-01  0  0.2420E-01  0 -0.3048E-01  0 -0.1399E-01
   ( 16,  1, 70)  (  9,  1, 12)  (  9,  1, 12)  ( 11,  1, 65)  ( 11,  1, 70)
  0  0.2419E-01  0  0.3533E-02  0  0.3197E-02  0  0.6142E-03  1  0.6395E-03
   ( 11,  1, 70)  ( 11,  1, 71)  ( 11,  1, 71)  ( 11,  1, 69)  ( 11,  1, 70)

 MAXIMUM RESIDUAL FOR EACH ITERATION (1 INDICATES THE FIRST INNER ITERATION):

    RESIDUAL       RESIDUAL       RESIDUAL       RESIDUAL       RESIDUAL    
   LAYER,ROW,COL  LAYER,ROW,COL  LAYER,ROW,COL  LAYER,ROW,COL  LAYER,ROW,COL
 ---------------------------------------------------------------------------
  1 -0.2621E+06  0 -0.2108E+06  0 -0.7326E+05  0 -0.4257E+05  0 -0.1155E+05
   ( 19,  1, 71)  ( 19,  1, 71)  ( 23,  1, 62)  ( 23,  1, 62)  ( 22,  1, 69)
  0   2754.      0  -2201.      0  -1740.      0  -1219.      1  -1008.    
   ( 22,  1, 62)  ( 18,  1, 72)  ( 18,  1, 72)  ( 18,  1, 72)  ( 18,  1, 72)


 FLOW MODEL IS TRANSIENT
 FLOW MODEL CONTAINS CONSTANT-HEAD CELLS


 MAXIMUM STEPSIZE DURING WHICH ANY PARTICLE CANNOT MOVE MORE THAN ONE CELL
 =  42.37    (WHEN MIN. R.F.=1)  AT K=   2, I=   1, J=  71

 MAXIMUM STEPSIZE WHICH MEETS STABILITY CRITERION OF THE ADVECTION TERM
 (FOR PURE FINITE-DIFFERENCE OPTION, MIXELM=0) 
 =  25.60    (WHEN MIN. R.F.=1)  AT K=   2, I=   1, J=  71


 TOTAL NUMBER OF POINT SOURCES/SINKS PRESENT IN THE FLOW MODEL =    30

 MAXIMUM STEPSIZE WHICH MEETS STABILITY CRITERION OF THE SINK & SOURCE TERM
 =  331.8    (WHEN MIN. R.F.=1)  AT K=   3, I=   1, J=  73

 MAXIMUM STEPSIZE WHICH MEETS STABILITY CRITERION OF THE DISPERSION TERM
 =  6.515    (WHEN MIN. R.F.=1)  AT K=  16, I=   1, J=  81
     1 CALLS TO GCG PACKAGE FOR TRANSPORT TIME STEP  47 IN FLOW TIME STEP   1 STRESS PERIOD   1
     5 TOTAL ITERATIONS
0WARNING: NUMERICAL OSCILLATION ENCOUNTERED
 ONE OR MORE CELL CONCENTRATIONS LESS THAN CRHOREF
 SMALLEST DENSITY =  0.100E+04
 AT CELL (I,J,K) = (   1,  69,   5)

 
 SOLVING FOR HEAD 


     2 CALLS TO PCG ROUTINE FOR TIME STEP   1 IN STRESS PERIOD    1
    10 TOTAL ITERATIONS

 MAXIMUM HEAD CHANGE FOR EACH ITERATION (1 INDICATES THE FIRST INNER ITERATION):

    HEAD CHANGE    HEAD CHANGE    HEAD CHANGE    HEAD CHANGE    HEAD CHANGE 
   LAYER,ROW,COL  LAYER,ROW,COL  LAYER,ROW,COL  LAYER,ROW,COL  LAYER,ROW,COL
 ---------------------------------------------------------------------------
  1 -0.2650E-01  0 -0.2326E-01  0  0.2459E-01  0 -0.3596E-01  0  0.1407E-01
   ( 15,  1, 69)  (  9,  1, 12)  (  9,  1, 12)  ( 11,  1, 65)  ( 11,  1, 64)
  0  0.2436E-01  0  0.2763E-02  0  0.2643E-02  0 -0.6506E-03  1  0.6532E-03
   ( 11,  1, 70)  ( 11,  1, 71)  ( 11,  1, 71)  ( 11,  1, 63)  ( 11,  1, 70)

 MAXIMUM RESIDUAL FOR EACH ITERATION (1 INDICATES THE FIRST INNER ITERATION):

    RESIDUAL       RESIDUAL       RESIDUAL       RESIDUAL       RESIDUAL    
   LAYER,ROW,COL  LAYER,ROW,COL  LAYER,ROW,COL  LAYER,ROW,COL  LAYER,ROW,COL
 ---------------------------------------------------------------------------
  1 -0.2714E+06  0 -0.2227E+06  0 -0.1036E+06  0 -0.5255E+05  0  0.1149E+05
   ( 19,  1, 70)  ( 19,  1, 70)  ( 23,  1, 62)  ( 23,  1, 62)  ( 22,  1, 69)
  0   2763.      0   2591.      0   1890.      0   1244.      1   1072.    
   ( 19,  1, 70)  ( 19,  1, 70)  ( 19,  1, 70)  ( 19,  1, 70)  ( 19,  1, 70)


 FLOW MODEL IS TRANSIENT
 FLOW MODEL CONTAINS CONSTANT-HEAD CELLS


 MAXIMUM STEPSIZE DURING WHICH ANY PARTICLE CANNOT MOVE MORE THAN ONE CELL
 =  42.29    (WHEN MIN. R.F.=1)  AT K=   2, I=   1, J=  71

 MAXIMUM STEPSIZE WHICH MEETS STABILITY CRITERION OF THE ADVECTION TERM
 (FOR PURE FINITE-DIFFERENCE OPTION, MIXELM=0) 
 =  25.58    (WHEN MIN. R.F.=1)  AT K=   2, I=   1, J=  71


 TOTAL NUMBER OF POINT SOURCES/SINKS PRESENT IN THE FLOW MODEL =    30

 MAXIMUM STEPSIZE WHICH MEETS STABILITY CRITERION OF THE SINK & SOURCE TERM
 =  327.8    (WHEN MIN. R.F.=1)  AT K=   3, I=   1, J=  73

 MAXIMUM STEPSIZE WHICH MEETS STABILITY CRITERION OF THE DISPERSION TERM
 =  6.549    (WHEN MIN. R.F.=1)  AT K=  16, I=   1, J=  81
     1 CALLS TO GCG PACKAGE FOR TRANSPORT TIME STEP  48 IN FLOW TIME STEP   1 STRESS PERIOD   1
     5 TOTAL ITERATIONS
0WARNING: NUMERICAL OSCILLATION ENCOUNTERED
 ONE OR MORE CELL CONCENTRATIONS LESS THAN CRHOREF
 SMALLEST DENSITY =  0.100E+04
 AT CELL (I,J,K) = (   1,  69,   5)

 
 SOLVING FOR HEAD 


     2 CALLS TO PCG ROUTINE FOR TIME STEP   1 IN STRESS PERIOD    1
    10 TOTAL ITERATIONS

 MAXIMUM HEAD CHANGE FOR EACH ITERATION (1 INDICATES THE FIRST INNER ITERATION):

    HEAD CHANGE    HEAD CHANGE    HEAD CHANGE    HEAD CHANGE    HEAD CHANGE 
   LAYER,ROW,COL  LAYER,ROW,COL  LAYER,ROW,COL  LAYER,ROW,COL  LAYER,ROW,COL
 ---------------------------------------------------------------------------
  1 -0.2763E-01  0 -0.2453E-01  0  0.2600E-01  0 -0.3796E-01  0  0.1909E-01
   ( 16,  1, 70)  (  9,  1, 12)  (  9,  1, 12)  ( 11,  1, 65)  ( 11,  1, 64)
  0  0.2295E-01  0  0.3117E-02  0  0.3315E-02  0  0.7658E-03  1 -0.6999E-03
   ( 11,  1, 70)  ( 11,  1, 71)  ( 11,  1, 71)  ( 11,  1, 69)  ( 11,  1, 71)

 MAXIMUM RESIDUAL FOR EACH ITERATION (1 INDICATES THE FIRST INNER ITERATION):

    RESIDUAL       RESIDUAL       RESIDUAL       RESIDUAL       RESIDUAL    
   LAYER,ROW,COL  LAYER,ROW,COL  LAYER,ROW,COL  LAYER,ROW,COL  LAYER,ROW,COL
 ---------------------------------------------------------------------------
  1 -0.3593E+06  0 -0.3062E+06  0 -0.1771E+06  0 -0.8012E+05  0  0.1280E+05
   ( 19,  1, 71)  ( 19,  1, 71)  ( 19,  1, 71)  ( 19,  1, 71)  ( 22,  1, 70)
  0   3612.      0   3288.      0   2219.      0   1327.      1   1165.    
   ( 19,  1, 69)  ( 19,  1, 69)  ( 19,  1, 69)  ( 19,  1, 69)  ( 19,  1, 69)


 FLOW MODEL IS TRANSIENT
 FLOW MODEL CONTAINS CONSTANT-HEAD CELLS


 MAXIMUM STEPSIZE DURING WHICH ANY PARTICLE CANNOT MOVE MORE THAN ONE CELL
 =  32.15    (WHEN MIN. R.F.=1)  AT K=  20, I=   1, J=  70

 MAXIMUM STEPSIZE WHICH MEETS STABILITY CRITERION OF THE ADVECTION TERM
 (FOR PURE FINITE-DIFFERENCE OPTION, MIXELM=0) 
 =  23.16    (WHEN MIN. R.F.=1)  AT K=  18, I=   1, J=  70


 TOTAL NUMBER OF POINT SOURCES/SINKS PRESENT IN THE FLOW MODEL =    30

 MAXIMUM STEPSIZE WHICH MEETS STABILITY CRITERION OF THE SINK & SOURCE TERM
 =  324.1    (WHEN MIN. R.F.=1)  AT K=   3, I=   1, J=  73

 MAXIMUM STEPSIZE WHICH MEETS STABILITY CRITERION OF THE DISPERSION TERM
 =  6.633    (WHEN MIN. R.F.=1)  AT K=  16, I=   1, J=  82
     1 CALLS TO GCG PACKAGE FOR TRANSPORT TIME STEP  49 IN FLOW TIME STEP   1 STRESS PERIOD   1
     5 TOTAL ITERATIONS
0WARNING: NUMERICAL OSCILLATION ENCOUNTERED
 ONE OR MORE CELL CONCENTRATIONS LESS THAN CRHOREF
 SMALLEST DENSITY =  0.100E+04
 AT CELL (I,J,K) = (   1,  69,   5)

 
 SOLVING FOR HEAD 


     2 CALLS TO PCG ROUTINE FOR TIME STEP   1 IN STRESS PERIOD    1
    11 TOTAL ITERATIONS

 MAXIMUM HEAD CHANGE FOR EACH ITERATION (1 INDICATES THE FIRST INNER ITERATION):

    HEAD CHANGE    HEAD CHANGE    HEAD CHANGE    HEAD CHANGE    HEAD CHANGE 
   LAYER,ROW,COL  LAYER,ROW,COL  LAYER,ROW,COL  LAYER,ROW,COL  LAYER,ROW,COL
 ---------------------------------------------------------------------------
  1 -0.3155E-01  0 -0.2674E-01  0  0.2818E-01  0 -0.3967E-01  0  0.2389E-01
   ( 15,  1, 69)  (  9,  1, 12)  (  9,  1, 12)  ( 11,  1, 65)  ( 11,  1, 64)
  0  0.2133E-01  0  0.1966E-02  0  0.1926E-02  0 -0.1009E-02  0  0.7437E-03
   ( 11,  1, 70)  ( 11,  1, 71)  ( 11,  1, 71)  ( 11,  1, 64)  ( 11,  1, 70)
  1  0.4650E-03
   ( 11,  1, 67)

 MAXIMUM RESIDUAL FOR EACH ITERATION (1 INDICATES THE FIRST INNER ITERATION):

    RESIDUAL       RESIDUAL       RESIDUAL       RESIDUAL       RESIDUAL    
   LAYER,ROW,COL  LAYER,ROW,COL  LAYER,ROW,COL  LAYER,ROW,COL  LAYER,ROW,COL
 ---------------------------------------------------------------------------
  1 -0.3926E+06  0 -0.3365E+06  0 -0.2152E+06  0 -0.8891E+05  0 -0.1276E+05
   ( 19,  1, 72)  ( 19,  1, 72)  ( 19,  1, 72)  ( 20,  1, 71)  ( 20,  1, 71)
  0   3392.      0   2950.      0  -1848.      0  -960.5      0  -516.9    
   ( 22,  1, 71)  ( 19,  1, 68)  ( 18,  1, 71)  ( 18,  1, 73)  ( 18,  1, 73)
  1  -449.0    
   ( 18,  1, 73)


 FLOW MODEL IS TRANSIENT
 FLOW MODEL CONTAINS CONSTANT-HEAD CELLS


 MAXIMUM STEPSIZE DURING WHICH ANY PARTICLE CANNOT MOVE MORE THAN ONE CELL
 =  24.29    (WHEN MIN. R.F.=1)  AT K=  20, I=   1, J=  70

 MAXIMUM STEPSIZE WHICH MEETS STABILITY CRITERION OF THE ADVECTION TERM
 (FOR PURE FINITE-DIFFERENCE OPTION, MIXELM=0) 
 =  19.31    (WHEN MIN. R.F.=1)  AT K=  21, I=   1, J=  70


 TOTAL NUMBER OF POINT SOURCES/SINKS PRESENT IN THE FLOW MODEL =    30

 MAXIMUM STEPSIZE WHICH MEETS STABILITY CRITERION OF THE SINK & SOURCE TERM
 =  320.7    (WHEN MIN. R.F.=1)  AT K=   3, I=   1, J=  73

 MAXIMUM STEPSIZE WHICH MEETS STABILITY CRITERION OF THE DISPERSION TERM
 =  6.666    (WHEN MIN. R.F.=1)  AT K=  16, I=   1, J=  81
     1 CALLS TO GCG PACKAGE FOR TRANSPORT TIME STEP  50 IN FLOW TIME STEP   1 STRESS PERIOD   1
     5 TOTAL ITERATIONS
  MAXIMUM CONCENTRATION CHANGES FOR EACH ITERATION:
  MAX. CHANGE LAYER,ROW,COL MAX. CHANGE LAYER,ROW,COL MAX. CHANGE LAYER,ROW,COL MAX. CHANGE LAYER,ROW,COL MAX. CHANGE LAYER,ROW,COL
 ------------------------------------------------------------------------------------------------------------------------------------
   0.9129E-01 ( 16,  1, 90)  0.4444E-02 ( 16,  1, 90)  0.9699E-04 ( 23,  1, 71)  0.3224E-05 ( 23,  1, 71)  0.1769E-06 ( 20,  1, 73)



 >>>>>>>>>>>>>>>>>>>>>>>>>>>>>>>>>>>>>>>>>>>>>>>>>>>>>>>FOR COMPONENT NO. 01<<<<<<<<<<<<<<<<<<<<<<<<<<<<<<<<<<<<<<<<<<<<<<<<<<<<<<<


                                            -------------------------------------------
                                                      TRANSPORT STEP NO.   50
                                            -------------------------------------------

 TOTAL ELAPSED TIME SINCE BEGINNING OF SIMULATION =   352.3736    D   
 .....................................................................

                     CUMMULATIVE MASS BUDGETS AT END OF TRANSPORT STEP   50, TIME STEP    1, STRESS PERIOD    1
                     ------------------------------------------------------------------------------------------

                                                             IN                           OUT
                                                      ----------------             ----------------
                               CONSTANT CONCENTRATION:    0.000000                    0.000000    
                                        CONSTANT HEAD:    867053.7                   -2748192.    
                                             RECHARGE:    0.000000                    0.000000    
                                MASS STORAGE (SOLUTE):   0.1462944E+08              -0.1274827E+08
                            ---------------------------------------------------------------------------
                                              [TOTAL]:   0.1549756E+08 KG           -0.1549756E+08 KG  

                                                          NET (IN - OUT):  -0.9697189    
                                                   DISCREPANCY (PERCENT):  -0.6257235E-05
0WARNING: NUMERICAL OSCILLATION ENCOUNTERED
 ONE OR MORE CELL CONCENTRATIONS LESS THAN CRHOREF
 SMALLEST DENSITY =  0.100E+04
 AT CELL (I,J,K) = (   1,  69,   5)

 
 SOLVING FOR HEAD 


     2 CALLS TO PCG ROUTINE FOR TIME STEP   1 IN STRESS PERIOD    1
    11 TOTAL ITERATIONS

 MAXIMUM HEAD CHANGE FOR EACH ITERATION (1 INDICATES THE FIRST INNER ITERATION):

    HEAD CHANGE    HEAD CHANGE    HEAD CHANGE    HEAD CHANGE    HEAD CHANGE 
   LAYER,ROW,COL  LAYER,ROW,COL  LAYER,ROW,COL  LAYER,ROW,COL  LAYER,ROW,COL
 ---------------------------------------------------------------------------
  1 -0.3071E-01  0 -0.2615E-01  0  0.2751E-01  0 -0.3273E-01  0  0.1995E-01
   ( 15,  1, 70)  (  9,  1, 12)  (  9,  1, 12)  ( 11,  1, 65)  ( 11,  1, 64)
  0  0.1637E-01  0  0.2802E-02  0  0.2843E-02  0 -0.1368E-02  0 -0.8962E-03
   ( 11,  1, 70)  ( 11,  1, 71)  ( 11,  1, 71)  ( 11,  1, 70)  ( 11,  1, 71)
  1  0.4839E-03
   ( 11,  1, 66)

 MAXIMUM RESIDUAL FOR EACH ITERATION (1 INDICATES THE FIRST INNER ITERATION):

    RESIDUAL       RESIDUAL       RESIDUAL       RESIDUAL       RESIDUAL    
   LAYER,ROW,COL  LAYER,ROW,COL  LAYER,ROW,COL  LAYER,ROW,COL  LAYER,ROW,COL
 ---------------------------------------------------------------------------
  1 -0.3516E+06  0 -0.2946E+06  0 -0.2074E+06  0 -0.9391E+05  0  0.1069E+05
   ( 19,  1, 73)  ( 19,  1, 73)  ( 20,  1, 72)  ( 20,  1, 72)  ( 21,  1, 73)
  0   3568.      0  -2838.      0  -1970.      0  -858.4      0  -449.5    
   ( 22,  1, 72)  ( 18,  1, 72)  ( 18,  1, 72)  ( 18,  1, 72)  ( 18,  1, 74)
  1  -445.2    
   ( 17,  1, 71)


 FLOW MODEL IS TRANSIENT
 FLOW MODEL CONTAINS CONSTANT-HEAD CELLS


 MAXIMUM STEPSIZE DURING WHICH ANY PARTICLE CANNOT MOVE MORE THAN ONE CELL
 =  25.14    (WHEN MIN. R.F.=1)  AT K=  20, I=   1, J=  71

 MAXIMUM STEPSIZE WHICH MEETS STABILITY CRITERION OF THE ADVECTION TERM
 (FOR PURE FINITE-DIFFERENCE OPTION, MIXELM=0) 
 =  19.47    (WHEN MIN. R.F.=1)  AT K=  18, I=   1, J=  70


 TOTAL NUMBER OF POINT SOURCES/SINKS PRESENT IN THE FLOW MODEL =    30

 MAXIMUM STEPSIZE WHICH MEETS STABILITY CRITERION OF THE SINK & SOURCE TERM
 =  317.9    (WHEN MIN. R.F.=1)  AT K=   3, I=   1, J=  73

 MAXIMUM STEPSIZE WHICH MEETS STABILITY CRITERION OF THE DISPERSION TERM
 =  6.722    (WHEN MIN. R.F.=1)  AT K=  16, I=   1, J=  82
     1 CALLS TO GCG PACKAGE FOR TRANSPORT TIME STEP  51 IN FLOW TIME STEP   1 STRESS PERIOD   1
     5 TOTAL ITERATIONS
0WARNING: NUMERICAL OSCILLATION ENCOUNTERED
 ONE OR MORE CELL CONCENTRATIONS LESS THAN CRHOREF
 SMALLEST DENSITY =  0.100E+04
 AT CELL (I,J,K) = (   1,  69,   5)

 
 SOLVING FOR HEAD 


     2 CALLS TO PCG ROUTINE FOR TIME STEP   1 IN STRESS PERIOD    1
    11 TOTAL ITERATIONS

 MAXIMUM HEAD CHANGE FOR EACH ITERATION (1 INDICATES THE FIRST INNER ITERATION):

    HEAD CHANGE    HEAD CHANGE    HEAD CHANGE    HEAD CHANGE    HEAD CHANGE 
   LAYER,ROW,COL  LAYER,ROW,COL  LAYER,ROW,COL  LAYER,ROW,COL  LAYER,ROW,COL
 ---------------------------------------------------------------------------
  1 -0.2438E-01  0 -0.2074E-01  0  0.2169E-01  0 -0.2600E-01  0  0.1549E-01
   ( 15,  1, 71)  (  9,  1, 12)  (  9,  1, 12)  ( 11,  1, 65)  ( 11,  1, 64)
  0  0.1396E-01  0  0.1393E-02  0  0.1293E-02  0 -0.1021E-02  0 -0.5927E-03
   ( 11,  1, 70)  ( 11,  1, 70)  ( 11,  1, 67)  ( 11,  1, 70)  ( 11,  1, 67)
  1  0.3398E-03
   ( 11,  1, 66)

 MAXIMUM RESIDUAL FOR EACH ITERATION (1 INDICATES THE FIRST INNER ITERATION):

    RESIDUAL       RESIDUAL       RESIDUAL       RESIDUAL       RESIDUAL    
   LAYER,ROW,COL  LAYER,ROW,COL  LAYER,ROW,COL  LAYER,ROW,COL  LAYER,ROW,COL
 ---------------------------------------------------------------------------
  1 -0.2551E+06  0 -0.2182E+06  0 -0.1514E+06  0 -0.6271E+05  0  -7308.    
   ( 19,  1, 72)  ( 19,  1, 72)  ( 19,  1, 72)  ( 20,  1, 73)  ( 20,  1, 73)
  0   2768.      0   2353.      0   1470.      0  -605.9      0  -331.4    
   ( 21,  1, 74)  ( 21,  1, 74)  ( 21,  1, 74)  ( 18,  1, 73)  ( 22,  1, 66)
  1  -334.9    
   ( 17,  1, 72)


 FLOW MODEL IS TRANSIENT
 FLOW MODEL CONTAINS CONSTANT-HEAD CELLS


 MAXIMUM STEPSIZE DURING WHICH ANY PARTICLE CANNOT MOVE MORE THAN ONE CELL
 =  40.67    (WHEN MIN. R.F.=1)  AT K=  19, I=   1, J=  71

 MAXIMUM STEPSIZE WHICH MEETS STABILITY CRITERION OF THE ADVECTION TERM
 (FOR PURE FINITE-DIFFERENCE OPTION, MIXELM=0) 
 =  25.57    (WHEN MIN. R.F.=1)  AT K=   2, I=   1, J=  71


 TOTAL NUMBER OF POINT SOURCES/SINKS PRESENT IN THE FLOW MODEL =    30

 MAXIMUM STEPSIZE WHICH MEETS STABILITY CRITERION OF THE SINK & SOURCE TERM
 =  315.7    (WHEN MIN. R.F.=1)  AT K=   3, I=   1, J=  73

 MAXIMUM STEPSIZE WHICH MEETS STABILITY CRITERION OF THE DISPERSION TERM
 =  6.778    (WHEN MIN. R.F.=1)  AT K=  16, I=   1, J=  81
     1 CALLS TO GCG PACKAGE FOR TRANSPORT TIME STEP  52 IN FLOW TIME STEP   1 STRESS PERIOD   1
     5 TOTAL ITERATIONS
0WARNING: NUMERICAL OSCILLATION ENCOUNTERED
 ONE OR MORE CELL CONCENTRATIONS LESS THAN CRHOREF
 SMALLEST DENSITY =  0.100E+04
 AT CELL (I,J,K) = (   1,  69,   5)

 
 SOLVING FOR HEAD 


     2 CALLS TO PCG ROUTINE FOR TIME STEP   1 IN STRESS PERIOD    1
    10 TOTAL ITERATIONS

 MAXIMUM HEAD CHANGE FOR EACH ITERATION (1 INDICATES THE FIRST INNER ITERATION):

    HEAD CHANGE    HEAD CHANGE    HEAD CHANGE    HEAD CHANGE    HEAD CHANGE 
   LAYER,ROW,COL  LAYER,ROW,COL  LAYER,ROW,COL  LAYER,ROW,COL  LAYER,ROW,COL
 ---------------------------------------------------------------------------
  1 -0.1928E-01  0 -0.1568E-01  0  0.1664E-01  0 -0.2565E-01  0 -0.1172E-01
   ( 15,  1, 72)  (  9,  1, 12)  (  9,  1, 12)  ( 11,  1, 65)  ( 11,  1, 70)
  0  0.1598E-01  0  0.1886E-02  0  0.2200E-02  0 -0.5071E-03  1 -0.4948E-03
   ( 11,  1, 70)  ( 11,  1, 71)  ( 11,  1, 71)  ( 11,  1, 62)  ( 11,  1, 71)

 MAXIMUM RESIDUAL FOR EACH ITERATION (1 INDICATES THE FIRST INNER ITERATION):

    RESIDUAL       RESIDUAL       RESIDUAL       RESIDUAL       RESIDUAL    
   LAYER,ROW,COL  LAYER,ROW,COL  LAYER,ROW,COL  LAYER,ROW,COL  LAYER,ROW,COL
 ---------------------------------------------------------------------------
  1 -0.2606E+06  0 -0.2311E+06  0 -0.1384E+06  0 -0.6299E+05  0  -9680.    
   ( 19,  1, 73)  ( 19,  1, 73)  ( 19,  1, 73)  ( 19,  1, 73)  ( 19,  1, 74)
  0  -2326.      0  -2068.      0  -1370.      0   762.4      1  -647.4    
   ( 18,  1, 75)  ( 18,  1, 75)  ( 18,  1, 75)  ( 19,  1, 73)  ( 18,  1, 75)


 FLOW MODEL IS TRANSIENT
 FLOW MODEL CONTAINS CONSTANT-HEAD CELLS


 MAXIMUM STEPSIZE DURING WHICH ANY PARTICLE CANNOT MOVE MORE THAN ONE CELL
 =  42.14    (WHEN MIN. R.F.=1)  AT K=   2, I=   1, J=  71

 MAXIMUM STEPSIZE WHICH MEETS STABILITY CRITERION OF THE ADVECTION TERM
 (FOR PURE FINITE-DIFFERENCE OPTION, MIXELM=0) 
 =  25.58    (WHEN MIN. R.F.=1)  AT K=   2, I=   1, J=  71


 TOTAL NUMBER OF POINT SOURCES/SINKS PRESENT IN THE FLOW MODEL =    30

 MAXIMUM STEPSIZE WHICH MEETS STABILITY CRITERION OF THE SINK & SOURCE TERM
 =  313.6    (WHEN MIN. R.F.=1)  AT K=   3, I=   1, J=  73

 MAXIMUM STEPSIZE WHICH MEETS STABILITY CRITERION OF THE DISPERSION TERM
 =  6.807    (WHEN MIN. R.F.=1)  AT K=  16, I=   1, J=  82
     1 CALLS TO GCG PACKAGE FOR TRANSPORT TIME STEP  53 IN FLOW TIME STEP   1 STRESS PERIOD   1
     5 TOTAL ITERATIONS
0WARNING: NUMERICAL OSCILLATION ENCOUNTERED
 ONE OR MORE CELL CONCENTRATIONS LESS THAN CRHOREF
 SMALLEST DENSITY =  0.100E+04
 AT CELL (I,J,K) = (   1,  69,   5)

 
 SOLVING FOR HEAD 


     2 CALLS TO PCG ROUTINE FOR TIME STEP   1 IN STRESS PERIOD    1
    10 TOTAL ITERATIONS

 MAXIMUM HEAD CHANGE FOR EACH ITERATION (1 INDICATES THE FIRST INNER ITERATION):

    HEAD CHANGE    HEAD CHANGE    HEAD CHANGE    HEAD CHANGE    HEAD CHANGE 
   LAYER,ROW,COL  LAYER,ROW,COL  LAYER,ROW,COL  LAYER,ROW,COL  LAYER,ROW,COL
 ---------------------------------------------------------------------------
  1 -0.2247E-01  0 -0.1834E-01  0  0.2018E-01  0 -0.2851E-01  0 -0.1672E-01
   ( 15,  1, 71)  (  9,  1, 12)  ( 11,  1, 65)  ( 11,  1, 64)  ( 11,  1, 70)
  0  0.2091E-01  0  0.2031E-02  0  0.2022E-02  0 -0.6153E-03  1  0.6842E-03
   ( 11,  1, 70)  ( 11,  1, 70)  ( 11,  1, 71)  ( 11,  1, 70)  ( 11,  1, 70)

 MAXIMUM RESIDUAL FOR EACH ITERATION (1 INDICATES THE FIRST INNER ITERATION):

    RESIDUAL       RESIDUAL       RESIDUAL       RESIDUAL       RESIDUAL    
   LAYER,ROW,COL  LAYER,ROW,COL  LAYER,ROW,COL  LAYER,ROW,COL  LAYER,ROW,COL
 ---------------------------------------------------------------------------
  1 -0.2705E+06  0 -0.2350E+06  0 -0.1061E+06  0 -0.5469E+05  0   9878.    
   ( 19,  1, 74)  ( 19,  1, 74)  ( 19,  1, 74)  ( 19,  1, 74)  ( 21,  1, 74)
  0   2433.      0  -2237.      0  -1485.      0   867.2      1  -792.4    
   ( 18,  1, 72)  ( 17,  1, 74)  ( 17,  1, 74)  ( 18,  1, 72)  ( 17,  1, 74)


 FLOW MODEL IS TRANSIENT
 FLOW MODEL CONTAINS CONSTANT-HEAD CELLS


 MAXIMUM STEPSIZE DURING WHICH ANY PARTICLE CANNOT MOVE MORE THAN ONE CELL
 =  42.13    (WHEN MIN. R.F.=1)  AT K=   2, I=   1, J=  71

 MAXIMUM STEPSIZE WHICH MEETS STABILITY CRITERION OF THE ADVECTION TERM
 (FOR PURE FINITE-DIFFERENCE OPTION, MIXELM=0) 
 =  25.58    (WHEN MIN. R.F.=1)  AT K=   2, I=   1, J=  71


 TOTAL NUMBER OF POINT SOURCES/SINKS PRESENT IN THE FLOW MODEL =    30

 MAXIMUM STEPSIZE WHICH MEETS STABILITY CRITERION OF THE SINK & SOURCE TERM
 =  310.9    (WHEN MIN. R.F.=1)  AT K=   3, I=   1, J=  73

 MAXIMUM STEPSIZE WHICH MEETS STABILITY CRITERION OF THE DISPERSION TERM
 =  6.877    (WHEN MIN. R.F.=1)  AT K=  16, I=   1, J=  81
     1 CALLS TO GCG PACKAGE FOR TRANSPORT TIME STEP  54 IN FLOW TIME STEP   1 STRESS PERIOD   1
     5 TOTAL ITERATIONS
0WARNING: NUMERICAL OSCILLATION ENCOUNTERED
 ONE OR MORE CELL CONCENTRATIONS LESS THAN CRHOREF
 SMALLEST DENSITY =  0.100E+04
 AT CELL (I,J,K) = (   1,  69,   4)

 
 SOLVING FOR HEAD 


     2 CALLS TO PCG ROUTINE FOR TIME STEP   1 IN STRESS PERIOD    1
    10 TOTAL ITERATIONS

 MAXIMUM HEAD CHANGE FOR EACH ITERATION (1 INDICATES THE FIRST INNER ITERATION):

    HEAD CHANGE    HEAD CHANGE    HEAD CHANGE    HEAD CHANGE    HEAD CHANGE 
   LAYER,ROW,COL  LAYER,ROW,COL  LAYER,ROW,COL  LAYER,ROW,COL  LAYER,ROW,COL
 ---------------------------------------------------------------------------
  1 -0.2252E-01  0 -0.1735E-01  0  0.1962E-01  0 -0.2792E-01  0 -0.1746E-01
   ( 15,  1, 72)  (  9,  1, 12)  ( 11,  1, 66)  ( 11,  1, 64)  ( 11,  1, 70)
  0  0.2101E-01  0  0.2420E-02  0  0.2527E-02  0 -0.6347E-03  1  0.6307E-03
   ( 11,  1, 70)  ( 11,  1, 71)  ( 11,  1, 71)  ( 11,  1, 70)  ( 11,  1, 70)

 MAXIMUM RESIDUAL FOR EACH ITERATION (1 INDICATES THE FIRST INNER ITERATION):

    RESIDUAL       RESIDUAL       RESIDUAL       RESIDUAL       RESIDUAL    
   LAYER,ROW,COL  LAYER,ROW,COL  LAYER,ROW,COL  LAYER,ROW,COL  LAYER,ROW,COL
 ---------------------------------------------------------------------------
  1 -0.1763E+06  0 -0.1534E+06  0 -0.8937E+05  0 -0.5247E+05  0 -0.1025E+05
   ( 19,  1, 73)  ( 19,  1, 73)  ( 23,  1, 61)  ( 23,  1, 61)  ( 22,  1, 71)
  0   2558.      0   2357.      0   1823.      0   1160.      1   975.4    
   ( 19,  1, 73)  ( 19,  1, 73)  ( 19,  1, 73)  ( 19,  1, 73)  ( 19,  1, 73)


 FLOW MODEL IS TRANSIENT
 FLOW MODEL CONTAINS CONSTANT-HEAD CELLS


 MAXIMUM STEPSIZE DURING WHICH ANY PARTICLE CANNOT MOVE MORE THAN ONE CELL
 =  42.13    (WHEN MIN. R.F.=1)  AT K=   2, I=   1, J=  71

 MAXIMUM STEPSIZE WHICH MEETS STABILITY CRITERION OF THE ADVECTION TERM
 (FOR PURE FINITE-DIFFERENCE OPTION, MIXELM=0) 
 =  25.59    (WHEN MIN. R.F.=1)  AT K=   2, I=   1, J=  71


 TOTAL NUMBER OF POINT SOURCES/SINKS PRESENT IN THE FLOW MODEL =    30

 MAXIMUM STEPSIZE WHICH MEETS STABILITY CRITERION OF THE SINK & SOURCE TERM
 =  308.5    (WHEN MIN. R.F.=1)  AT K=   3, I=   1, J=  73

 MAXIMUM STEPSIZE WHICH MEETS STABILITY CRITERION OF THE DISPERSION TERM
 =  6.909    (WHEN MIN. R.F.=1)  AT K=  16, I=   1, J=  82
     1 CALLS TO GCG PACKAGE FOR TRANSPORT TIME STEP  55 IN FLOW TIME STEP   1 STRESS PERIOD   1
     5 TOTAL ITERATIONS
  MAXIMUM CONCENTRATION CHANGES FOR EACH ITERATION:
  MAX. CHANGE LAYER,ROW,COL MAX. CHANGE LAYER,ROW,COL MAX. CHANGE LAYER,ROW,COL MAX. CHANGE LAYER,ROW,COL MAX. CHANGE LAYER,ROW,COL
 ------------------------------------------------------------------------------------------------------------------------------------
   0.9826E-01 ( 16,  1, 90)  0.3116E-02 ( 16,  1, 90)  0.5048E-04 ( 23,  1, 72)  0.2567E-05 ( 21,  1, 73)  0.1623E-06 ( 20,  1, 75)
0WARNING: NUMERICAL OSCILLATION ENCOUNTERED
 ONE OR MORE CELL CONCENTRATIONS LESS THAN CRHOREF
 SMALLEST DENSITY =  0.100E+04
 AT CELL (I,J,K) = (   1,  69,   4)

 
 SOLVING FOR HEAD 


     2 CALLS TO PCG ROUTINE FOR TIME STEP   1 IN STRESS PERIOD    1
    10 TOTAL ITERATIONS

 MAXIMUM HEAD CHANGE FOR EACH ITERATION (1 INDICATES THE FIRST INNER ITERATION):

    HEAD CHANGE    HEAD CHANGE    HEAD CHANGE    HEAD CHANGE    HEAD CHANGE 
   LAYER,ROW,COL  LAYER,ROW,COL  LAYER,ROW,COL  LAYER,ROW,COL  LAYER,ROW,COL
 ---------------------------------------------------------------------------
  1 -0.2207E-01  0 -0.1709E-01  0  0.1949E-01  0 -0.2786E-01  0 -0.1707E-01
   ( 23,  1, 72)  (  9,  1, 12)  ( 11,  1, 65)  ( 11,  1, 64)  ( 11,  1, 70)
  0  0.2095E-01  0  0.2033E-02  0  0.1995E-02  0 -0.6206E-03  1  0.6335E-03
   ( 11,  1, 70)  ( 11,  1, 70)  ( 11,  1, 71)  ( 11,  1, 70)  ( 11,  1, 70)

 MAXIMUM RESIDUAL FOR EACH ITERATION (1 INDICATES THE FIRST INNER ITERATION):

    RESIDUAL       RESIDUAL       RESIDUAL       RESIDUAL       RESIDUAL    
   LAYER,ROW,COL  LAYER,ROW,COL  LAYER,ROW,COL  LAYER,ROW,COL  LAYER,ROW,COL
 ---------------------------------------------------------------------------
  1 -0.2194E+06  0 -0.1954E+06  0 -0.1012E+06  0 -0.5543E+05  0  -8768.    
   ( 19,  1, 74)  ( 19,  1, 74)  ( 19,  1, 74)  ( 23,  1, 61)  ( 19,  1, 75)
  0  -2302.      0   1978.      0   1385.      0   818.7      1   718.8    
   ( 22,  1, 72)  ( 19,  1, 72)  ( 19,  1, 72)  ( 19,  1, 72)  ( 19,  1, 72)


 FLOW MODEL IS TRANSIENT
 FLOW MODEL CONTAINS CONSTANT-HEAD CELLS


 MAXIMUM STEPSIZE DURING WHICH ANY PARTICLE CANNOT MOVE MORE THAN ONE CELL
 =  42.14    (WHEN MIN. R.F.=1)  AT K=   2, I=   1, J=  71

 MAXIMUM STEPSIZE WHICH MEETS STABILITY CRITERION OF THE ADVECTION TERM
 (FOR PURE FINITE-DIFFERENCE OPTION, MIXELM=0) 
 =  25.60    (WHEN MIN. R.F.=1)  AT K=   2, I=   1, J=  71


 TOTAL NUMBER OF POINT SOURCES/SINKS PRESENT IN THE FLOW MODEL =    30

 MAXIMUM STEPSIZE WHICH MEETS STABILITY CRITERION OF THE SINK & SOURCE TERM
 =  306.2    (WHEN MIN. R.F.=1)  AT K=   3, I=   1, J=  73

 MAXIMUM STEPSIZE WHICH MEETS STABILITY CRITERION OF THE DISPERSION TERM
 =  6.966    (WHEN MIN. R.F.=1)  AT K=  16, I=   1, J=  81
     1 CALLS TO GCG PACKAGE FOR TRANSPORT TIME STEP  56 IN FLOW TIME STEP   1 STRESS PERIOD   1
     5 TOTAL ITERATIONS
0WARNING: NUMERICAL OSCILLATION ENCOUNTERED
 ONE OR MORE CELL CONCENTRATIONS LESS THAN CRHOREF
 SMALLEST DENSITY =  0.100E+04
 AT CELL (I,J,K) = (   1,  69,   4)

 
 SOLVING FOR HEAD 


     2 CALLS TO PCG ROUTINE FOR TIME STEP   1 IN STRESS PERIOD    1
    10 TOTAL ITERATIONS

 MAXIMUM HEAD CHANGE FOR EACH ITERATION (1 INDICATES THE FIRST INNER ITERATION):

    HEAD CHANGE    HEAD CHANGE    HEAD CHANGE    HEAD CHANGE    HEAD CHANGE 
   LAYER,ROW,COL  LAYER,ROW,COL  LAYER,ROW,COL  LAYER,ROW,COL  LAYER,ROW,COL
 ---------------------------------------------------------------------------
  1 -0.2299E-01  0 -0.1698E-01  0  0.1925E-01  0 -0.2914E-01  0 -0.1689E-01
   ( 16,  1, 72)  (  9,  1, 12)  ( 11,  1, 66)  ( 11,  1, 64)  ( 11,  1, 70)
  0  0.2101E-01  0  0.2359E-02  0  0.2562E-02  0 -0.6383E-03  1  0.6259E-03
   ( 11,  1, 70)  ( 11,  1, 71)  ( 11,  1, 71)  ( 11,  1, 70)  ( 11,  1, 70)

 MAXIMUM RESIDUAL FOR EACH ITERATION (1 INDICATES THE FIRST INNER ITERATION):

    RESIDUAL       RESIDUAL       RESIDUAL       RESIDUAL       RESIDUAL    
   LAYER,ROW,COL  LAYER,ROW,COL  LAYER,ROW,COL  LAYER,ROW,COL  LAYER,ROW,COL
 ---------------------------------------------------------------------------
  1 -0.1970E+06  0 -0.1779E+06  0 -0.1010E+06  0 -0.5351E+05  0  -9522.    
   ( 19,  1, 75)  ( 19,  1, 75)  ( 19,  1, 75)  ( 23,  1, 61)  ( 22,  1, 71)
  0   2522.      0   2344.      0   1727.      0   1026.      1   877.3    
   ( 19,  1, 73)  ( 19,  1, 73)  ( 19,  1, 73)  ( 19,  1, 73)  ( 19,  1, 73)


 FLOW MODEL IS TRANSIENT
 FLOW MODEL CONTAINS CONSTANT-HEAD CELLS


 MAXIMUM STEPSIZE DURING WHICH ANY PARTICLE CANNOT MOVE MORE THAN ONE CELL
 =  42.16    (WHEN MIN. R.F.=1)  AT K=   2, I=   1, J=  71

 MAXIMUM STEPSIZE WHICH MEETS STABILITY CRITERION OF THE ADVECTION TERM
 (FOR PURE FINITE-DIFFERENCE OPTION, MIXELM=0) 
 =  25.62    (WHEN MIN. R.F.=1)  AT K=   2, I=   1, J=  71


 TOTAL NUMBER OF POINT SOURCES/SINKS PRESENT IN THE FLOW MODEL =    30

 MAXIMUM STEPSIZE WHICH MEETS STABILITY CRITERION OF THE SINK & SOURCE TERM
 =  304.0    (WHEN MIN. R.F.=1)  AT K=   3, I=   1, J=  73

 MAXIMUM STEPSIZE WHICH MEETS STABILITY CRITERION OF THE DISPERSION TERM
 =  7.003    (WHEN MIN. R.F.=1)  AT K=  16, I=   1, J=  82
     1 CALLS TO GCG PACKAGE FOR TRANSPORT TIME STEP  57 IN FLOW TIME STEP   1 STRESS PERIOD   1
     5 TOTAL ITERATIONS
0WARNING: NUMERICAL OSCILLATION ENCOUNTERED
 ONE OR MORE CELL CONCENTRATIONS LESS THAN CRHOREF
 SMALLEST DENSITY =  0.100E+04
 AT CELL (I,J,K) = (   1,  69,   4)

 
 SOLVING FOR HEAD 


     2 CALLS TO PCG ROUTINE FOR TIME STEP   1 IN STRESS PERIOD    1
    10 TOTAL ITERATIONS

 MAXIMUM HEAD CHANGE FOR EACH ITERATION (1 INDICATES THE FIRST INNER ITERATION):

    HEAD CHANGE    HEAD CHANGE    HEAD CHANGE    HEAD CHANGE    HEAD CHANGE 
   LAYER,ROW,COL  LAYER,ROW,COL  LAYER,ROW,COL  LAYER,ROW,COL  LAYER,ROW,COL
 ---------------------------------------------------------------------------
  1 -0.2300E-01  0 -0.1668E-01  0  0.1909E-01  0 -0.3040E-01  0 -0.1619E-01
   ( 23,  1, 72)  (  9,  1, 12)  ( 11,  1, 65)  ( 11,  1, 64)  ( 11,  1, 70)
  0  0.2098E-01  0  0.1945E-02  0  0.1839E-02  0  0.5963E-03  1  0.6428E-03
   ( 11,  1, 70)  ( 11,  1, 70)  ( 11,  1, 71)  ( 11,  1, 72)  ( 11,  1, 70)

 MAXIMUM RESIDUAL FOR EACH ITERATION (1 INDICATES THE FIRST INNER ITERATION):

    RESIDUAL       RESIDUAL       RESIDUAL       RESIDUAL       RESIDUAL    
   LAYER,ROW,COL  LAYER,ROW,COL  LAYER,ROW,COL  LAYER,ROW,COL  LAYER,ROW,COL
 ---------------------------------------------------------------------------
  1 -0.1888E+06  0 -0.1716E+06  0 -0.1032E+06  0 -0.5007E+05  0  -9529.    
   ( 19,  1, 74)  ( 19,  1, 74)  ( 19,  1, 74)  ( 19,  1, 74)  ( 22,  1, 72)
  0  -2736.      0  -2269.      0  -1668.      0  -906.3      1  -749.9    
   ( 22,  1, 72)  ( 22,  1, 72)  ( 22,  1, 72)  ( 22,  1, 72)  ( 22,  1, 72)


 FLOW MODEL IS TRANSIENT
 FLOW MODEL CONTAINS CONSTANT-HEAD CELLS


 MAXIMUM STEPSIZE DURING WHICH ANY PARTICLE CANNOT MOVE MORE THAN ONE CELL
 =  41.09    (WHEN MIN. R.F.=1)  AT K=  20, I=   1, J=  73

 MAXIMUM STEPSIZE WHICH MEETS STABILITY CRITERION OF THE ADVECTION TERM
 (FOR PURE FINITE-DIFFERENCE OPTION, MIXELM=0) 
 =  25.64    (WHEN MIN. R.F.=1)  AT K=   2, I=   1, J=  71


 TOTAL NUMBER OF POINT SOURCES/SINKS PRESENT IN THE FLOW MODEL =    30

 MAXIMUM STEPSIZE WHICH MEETS STABILITY CRITERION OF THE SINK & SOURCE TERM
 =  301.9    (WHEN MIN. R.F.=1)  AT K=   3, I=   1, J=  73

 MAXIMUM STEPSIZE WHICH MEETS STABILITY CRITERION OF THE DISPERSION TERM
 =  7.054    (WHEN MIN. R.F.=1)  AT K=  16, I=   1, J=  81
     1 CALLS TO GCG PACKAGE FOR TRANSPORT TIME STEP  58 IN FLOW TIME STEP   1 STRESS PERIOD   1
     5 TOTAL ITERATIONS
0WARNING: NUMERICAL OSCILLATION ENCOUNTERED
 ONE OR MORE CELL CONCENTRATIONS LESS THAN CRHOREF
 SMALLEST DENSITY =  0.100E+04
 AT CELL (I,J,K) = (   1,  68,   8)

 
 SOLVING FOR HEAD 


     2 CALLS TO PCG ROUTINE FOR TIME STEP   1 IN STRESS PERIOD    1
    10 TOTAL ITERATIONS

 MAXIMUM HEAD CHANGE FOR EACH ITERATION (1 INDICATES THE FIRST INNER ITERATION):

    HEAD CHANGE    HEAD CHANGE    HEAD CHANGE    HEAD CHANGE    HEAD CHANGE 
   LAYER,ROW,COL  LAYER,ROW,COL  LAYER,ROW,COL  LAYER,ROW,COL  LAYER,ROW,COL
 ---------------------------------------------------------------------------
  1 -0.2400E-01  0 -0.1686E-01  0  0.1935E-01  0 -0.3407E-01  0 -0.1547E-01
   ( 23,  1, 73)  (  9,  1, 12)  ( 11,  1, 66)  ( 11,  1, 64)  ( 11,  1, 70)
  0  0.2134E-01  0  0.2232E-02  0  0.2550E-02  0 -0.6323E-03  1 -0.6769E-03
   ( 11,  1, 70)  ( 11,  1, 71)  ( 11,  1, 71)  ( 11,  1, 70)  ( 11,  1, 71)

 MAXIMUM RESIDUAL FOR EACH ITERATION (1 INDICATES THE FIRST INNER ITERATION):

    RESIDUAL       RESIDUAL       RESIDUAL       RESIDUAL       RESIDUAL    
   LAYER,ROW,COL  LAYER,ROW,COL  LAYER,ROW,COL  LAYER,ROW,COL  LAYER,ROW,COL
 ---------------------------------------------------------------------------
  1 -0.2720E+06  0 -0.2533E+06  0 -0.1818E+06  0 -0.8724E+05  0 -0.1027E+05
   ( 19,  1, 77)  ( 19,  1, 77)  ( 19,  1, 77)  ( 19,  1, 77)  ( 19,  1, 77)
  0  -3187.      0  -2715.      0  -1904.      0  -972.8      1   836.3    
   ( 22,  1, 73)  ( 22,  1, 73)  ( 22,  1, 73)  ( 22,  1, 73)  ( 19,  1, 73)


 FLOW MODEL IS TRANSIENT
 FLOW MODEL CONTAINS CONSTANT-HEAD CELLS


 MAXIMUM STEPSIZE DURING WHICH ANY PARTICLE CANNOT MOVE MORE THAN ONE CELL
 =  38.86    (WHEN MIN. R.F.=1)  AT K=  20, I=   1, J=  73

 MAXIMUM STEPSIZE WHICH MEETS STABILITY CRITERION OF THE ADVECTION TERM
 (FOR PURE FINITE-DIFFERENCE OPTION, MIXELM=0) 
 =  25.65    (WHEN MIN. R.F.=1)  AT K=   2, I=   1, J=  71


 TOTAL NUMBER OF POINT SOURCES/SINKS PRESENT IN THE FLOW MODEL =    30

 MAXIMUM STEPSIZE WHICH MEETS STABILITY CRITERION OF THE SINK & SOURCE TERM
 =  299.9    (WHEN MIN. R.F.=1)  AT K=   3, I=   1, J=  73

 MAXIMUM STEPSIZE WHICH MEETS STABILITY CRITERION OF THE DISPERSION TERM
 =  7.092    (WHEN MIN. R.F.=1)  AT K=  16, I=   1, J=  82
     1 CALLS TO GCG PACKAGE FOR TRANSPORT TIME STEP  59 IN FLOW TIME STEP   1 STRESS PERIOD   1
     5 TOTAL ITERATIONS
0WARNING: NUMERICAL OSCILLATION ENCOUNTERED
 ONE OR MORE CELL CONCENTRATIONS LESS THAN CRHOREF
 SMALLEST DENSITY =  0.100E+04
 AT CELL (I,J,K) = (   1,  68,   8)

 
 SOLVING FOR HEAD 


     2 CALLS TO PCG ROUTINE FOR TIME STEP   1 IN STRESS PERIOD    1
    10 TOTAL ITERATIONS

 MAXIMUM HEAD CHANGE FOR EACH ITERATION (1 INDICATES THE FIRST INNER ITERATION):

    HEAD CHANGE    HEAD CHANGE    HEAD CHANGE    HEAD CHANGE    HEAD CHANGE 
   LAYER,ROW,COL  LAYER,ROW,COL  LAYER,ROW,COL  LAYER,ROW,COL  LAYER,ROW,COL
 ---------------------------------------------------------------------------
  1 -0.2486E-01  0 -0.1690E-01  0  0.1986E-01  0 -0.3793E-01  0  0.1746E-01
   ( 15,  1, 73)  (  9,  1, 12)  ( 11,  1, 67)  ( 11,  1, 64)  ( 11,  1, 63)
  0  0.2157E-01  0  0.1820E-02  0  0.1704E-02  0  0.6214E-03  1  0.6821E-03
   ( 11,  1, 70)  ( 11,  1, 70)  ( 11,  1, 71)  ( 11,  1, 72)  ( 11,  1, 70)

 MAXIMUM RESIDUAL FOR EACH ITERATION (1 INDICATES THE FIRST INNER ITERATION):

    RESIDUAL       RESIDUAL       RESIDUAL       RESIDUAL       RESIDUAL    
   LAYER,ROW,COL  LAYER,ROW,COL  LAYER,ROW,COL  LAYER,ROW,COL  LAYER,ROW,COL
 ---------------------------------------------------------------------------
  1 -0.2908E+06  0 -0.2730E+06  0 -0.1995E+06  0 -0.8715E+05  0 -0.1144E+05
   ( 19,  1, 78)  ( 19,  1, 78)  ( 20,  1, 77)  ( 20,  1, 77)  ( 20,  1, 77)
  0   3000.      0   2793.      0   1982.      0   1020.      1   883.6    
   ( 19,  1, 74)  ( 19,  1, 74)  ( 19,  1, 74)  ( 19,  1, 74)  ( 19,  1, 74)


 FLOW MODEL IS TRANSIENT
 FLOW MODEL CONTAINS CONSTANT-HEAD CELLS


 MAXIMUM STEPSIZE DURING WHICH ANY PARTICLE CANNOT MOVE MORE THAN ONE CELL
 =  35.53    (WHEN MIN. R.F.=1)  AT K=  20, I=   1, J=  73

 MAXIMUM STEPSIZE WHICH MEETS STABILITY CRITERION OF THE ADVECTION TERM
 (FOR PURE FINITE-DIFFERENCE OPTION, MIXELM=0) 
 =  25.67    (WHEN MIN. R.F.=1)  AT K=   2, I=   1, J=  71


 TOTAL NUMBER OF POINT SOURCES/SINKS PRESENT IN THE FLOW MODEL =    30

 MAXIMUM STEPSIZE WHICH MEETS STABILITY CRITERION OF THE SINK & SOURCE TERM
 =  298.0    (WHEN MIN. R.F.=1)  AT K=   3, I=   1, J=  73

 MAXIMUM STEPSIZE WHICH MEETS STABILITY CRITERION OF THE DISPERSION TERM
 =  7.165    (WHEN MIN. R.F.=1)  AT K=  16, I=   1, J=  83
     1 CALLS TO GCG PACKAGE FOR TRANSPORT TIME STEP  60 IN FLOW TIME STEP   1 STRESS PERIOD   1
     5 TOTAL ITERATIONS
  MAXIMUM CONCENTRATION CHANGES FOR EACH ITERATION:
  MAX. CHANGE LAYER,ROW,COL MAX. CHANGE LAYER,ROW,COL MAX. CHANGE LAYER,ROW,COL MAX. CHANGE LAYER,ROW,COL MAX. CHANGE LAYER,ROW,COL
 ------------------------------------------------------------------------------------------------------------------------------------
   0.1002     ( 16,  1, 90)  0.4239E-02 ( 16,  1, 90)  0.1058E-03 ( 20,  1, 78)  0.4829E-05 ( 19,  1, 77)  0.2241E-06 ( 19,  1, 78)



 >>>>>>>>>>>>>>>>>>>>>>>>>>>>>>>>>>>>>>>>>>>>>>>>>>>>>>>FOR COMPONENT NO. 01<<<<<<<<<<<<<<<<<<<<<<<<<<<<<<<<<<<<<<<<<<<<<<<<<<<<<<<


                                            -------------------------------------------
                                                      TRANSPORT STEP NO.   60
                                            -------------------------------------------

 TOTAL ELAPSED TIME SINCE BEGINNING OF SIMULATION =   474.1839    D   
 .....................................................................

                     CUMMULATIVE MASS BUDGETS AT END OF TRANSPORT STEP   60, TIME STEP    1, STRESS PERIOD    1
                     ------------------------------------------------------------------------------------------

                                                             IN                           OUT
                                                      ----------------             ----------------
                               CONSTANT CONCENTRATION:    0.000000                    0.000000    
                                        CONSTANT HEAD:    1266350.                   -3423669.    
                                             RECHARGE:    0.000000                    0.000000    
                                MASS STORAGE (SOLUTE):   0.1733128E+08              -0.1517393E+08
                            ---------------------------------------------------------------------------
                                              [TOTAL]:   0.1859871E+08 KG           -0.1859872E+08 KG  

                                                          NET (IN - OUT):   -1.201999    
                                                   DISCREPANCY (PERCENT):  -0.6462806E-05
0WARNING: NUMERICAL OSCILLATION ENCOUNTERED
 ONE OR MORE CELL CONCENTRATIONS LESS THAN CRHOREF
 SMALLEST DENSITY =  0.100E+04
 AT CELL (I,J,K) = (   1,  68,   8)

 
 SOLVING FOR HEAD 


     2 CALLS TO PCG ROUTINE FOR TIME STEP   1 IN STRESS PERIOD    1
    10 TOTAL ITERATIONS

 MAXIMUM HEAD CHANGE FOR EACH ITERATION (1 INDICATES THE FIRST INNER ITERATION):

    HEAD CHANGE    HEAD CHANGE    HEAD CHANGE    HEAD CHANGE    HEAD CHANGE 
   LAYER,ROW,COL  LAYER,ROW,COL  LAYER,ROW,COL  LAYER,ROW,COL  LAYER,ROW,COL
 ---------------------------------------------------------------------------
  1 -0.2573E-01  0 -0.1727E-01  0  0.2038E-01  0 -0.4046E-01  0  0.1976E-01
   ( 15,  1, 74)  (  9,  1, 12)  ( 11,  1, 66)  ( 11,  1, 64)  ( 11,  1, 63)
  0  0.2210E-01  0  0.2123E-02  0  0.2546E-02  0 -0.6210E-03  1 -0.7158E-03
   ( 11,  1, 70)  ( 11,  1, 71)  ( 11,  1, 71)  ( 11,  1, 70)  ( 11,  1, 71)

 MAXIMUM RESIDUAL FOR EACH ITERATION (1 INDICATES THE FIRST INNER ITERATION):

    RESIDUAL       RESIDUAL       RESIDUAL       RESIDUAL       RESIDUAL    
   LAYER,ROW,COL  LAYER,ROW,COL  LAYER,ROW,COL  LAYER,ROW,COL  LAYER,ROW,COL
 ---------------------------------------------------------------------------
  1 -0.3382E+06  0 -0.3193E+06  0 -0.2368E+06  0 -0.8960E+05  0 -0.1150E+05
   ( 19,  1, 77)  ( 19,  1, 77)  ( 19,  1, 77)  ( 19,  1, 77)  ( 20,  1, 76)
  0   3507.      0   3243.      0   2280.      0   1158.      1   1008.    
   ( 19,  1, 75)  ( 19,  1, 75)  ( 19,  1, 75)  ( 19,  1, 75)  ( 19,  1, 75)


 FLOW MODEL IS TRANSIENT
 FLOW MODEL CONTAINS CONSTANT-HEAD CELLS


 MAXIMUM STEPSIZE DURING WHICH ANY PARTICLE CANNOT MOVE MORE THAN ONE CELL
 =  30.94    (WHEN MIN. R.F.=1)  AT K=  20, I=   1, J=  74

 MAXIMUM STEPSIZE WHICH MEETS STABILITY CRITERION OF THE ADVECTION TERM
 (FOR PURE FINITE-DIFFERENCE OPTION, MIXELM=0) 
 =  23.50    (WHEN MIN. R.F.=1)  AT K=  18, I=   1, J=  74


 TOTAL NUMBER OF POINT SOURCES/SINKS PRESENT IN THE FLOW MODEL =    30

 MAXIMUM STEPSIZE WHICH MEETS STABILITY CRITERION OF THE SINK & SOURCE TERM
 =  296.2    (WHEN MIN. R.F.=1)  AT K=   3, I=   1, J=  73

 MAXIMUM STEPSIZE WHICH MEETS STABILITY CRITERION OF THE DISPERSION TERM
 =  7.187    (WHEN MIN. R.F.=1)  AT K=  16, I=   1, J=  82
     1 CALLS TO GCG PACKAGE FOR TRANSPORT TIME STEP  61 IN FLOW TIME STEP   1 STRESS PERIOD   1
     5 TOTAL ITERATIONS
0WARNING: NUMERICAL OSCILLATION ENCOUNTERED
 ONE OR MORE CELL CONCENTRATIONS LESS THAN CRHOREF
 SMALLEST DENSITY =  0.100E+04
 AT CELL (I,J,K) = (   1,  68,   8)

 
 SOLVING FOR HEAD 


     2 CALLS TO PCG ROUTINE FOR TIME STEP   1 IN STRESS PERIOD    1
    10 TOTAL ITERATIONS

 MAXIMUM HEAD CHANGE FOR EACH ITERATION (1 INDICATES THE FIRST INNER ITERATION):

    HEAD CHANGE    HEAD CHANGE    HEAD CHANGE    HEAD CHANGE    HEAD CHANGE 
   LAYER,ROW,COL  LAYER,ROW,COL  LAYER,ROW,COL  LAYER,ROW,COL  LAYER,ROW,COL
 ---------------------------------------------------------------------------
  1 -0.2747E-01  0 -0.1770E-01  0  0.1964E-01  0 -0.3804E-01  0  0.1933E-01
   ( 15,  1, 75)  (  9,  1, 12)  ( 10,  1, 12)  ( 11,  1, 64)  ( 11,  1, 63)
  0  0.2091E-01  0  0.1853E-02  0  0.1593E-02  0 -0.7119E-03  1  0.6323E-03
   ( 11,  1, 70)  ( 11,  1, 70)  ( 11,  1, 71)  ( 11,  1, 70)  ( 11,  1, 70)

 MAXIMUM RESIDUAL FOR EACH ITERATION (1 INDICATES THE FIRST INNER ITERATION):

    RESIDUAL       RESIDUAL       RESIDUAL       RESIDUAL       RESIDUAL    
   LAYER,ROW,COL  LAYER,ROW,COL  LAYER,ROW,COL  LAYER,ROW,COL  LAYER,ROW,COL
 ---------------------------------------------------------------------------
  1 -0.2529E+06  0 -0.2396E+06  0 -0.1946E+06  0 -0.8306E+05  0 -0.1011E+05
   ( 19,  1, 76)  ( 19,  1, 76)  ( 20,  1, 77)  ( 20,  1, 77)  ( 20,  1, 77)
  0   3572.      0   3227.      0   2099.      0   935.8      1   841.3    
   ( 19,  1, 74)  ( 19,  1, 74)  ( 19,  1, 74)  ( 19,  1, 74)  ( 19,  1, 74)


 FLOW MODEL IS TRANSIENT
 FLOW MODEL CONTAINS CONSTANT-HEAD CELLS


 MAXIMUM STEPSIZE DURING WHICH ANY PARTICLE CANNOT MOVE MORE THAN ONE CELL
 =  26.79    (WHEN MIN. R.F.=1)  AT K=  20, I=   1, J=  75

 MAXIMUM STEPSIZE WHICH MEETS STABILITY CRITERION OF THE ADVECTION TERM
 (FOR PURE FINITE-DIFFERENCE OPTION, MIXELM=0) 
 =  21.25    (WHEN MIN. R.F.=1)  AT K=  18, I=   1, J=  76


 TOTAL NUMBER OF POINT SOURCES/SINKS PRESENT IN THE FLOW MODEL =    30

 MAXIMUM STEPSIZE WHICH MEETS STABILITY CRITERION OF THE SINK & SOURCE TERM
 =  294.4    (WHEN MIN. R.F.=1)  AT K=   3, I=   1, J=  73

 MAXIMUM STEPSIZE WHICH MEETS STABILITY CRITERION OF THE DISPERSION TERM
 =  7.253    (WHEN MIN. R.F.=1)  AT K=  16, I=   1, J=  83
     1 CALLS TO GCG PACKAGE FOR TRANSPORT TIME STEP  62 IN FLOW TIME STEP   1 STRESS PERIOD   1
     5 TOTAL ITERATIONS
0WARNING: NUMERICAL OSCILLATION ENCOUNTERED
 ONE OR MORE CELL CONCENTRATIONS LESS THAN CRHOREF
 SMALLEST DENSITY =  0.100E+04
 AT CELL (I,J,K) = (   1,  68,   8)

 
 SOLVING FOR HEAD 


     2 CALLS TO PCG ROUTINE FOR TIME STEP   1 IN STRESS PERIOD    1
    10 TOTAL ITERATIONS

 MAXIMUM HEAD CHANGE FOR EACH ITERATION (1 INDICATES THE FIRST INNER ITERATION):

    HEAD CHANGE    HEAD CHANGE    HEAD CHANGE    HEAD CHANGE    HEAD CHANGE 
   LAYER,ROW,COL  LAYER,ROW,COL  LAYER,ROW,COL  LAYER,ROW,COL  LAYER,ROW,COL
 ---------------------------------------------------------------------------
  1 -0.2550E-01  0 -0.1629E-01  0  0.1786E-01  0 -0.3059E-01  0  0.1515E-01
   ( 15,  1, 76)  (  9,  1, 12)  ( 10,  1, 12)  ( 11,  1, 64)  ( 11,  1, 63)
  0  0.1766E-01  0  0.1904E-02  0  0.1883E-02  0 -0.8464E-03  1  0.5463E-03
   ( 11,  1, 70)  ( 11,  1, 70)  ( 11,  1, 71)  ( 11,  1, 70)  ( 11,  1, 70)

 MAXIMUM RESIDUAL FOR EACH ITERATION (1 INDICATES THE FIRST INNER ITERATION):

    RESIDUAL       RESIDUAL       RESIDUAL       RESIDUAL       RESIDUAL    
   LAYER,ROW,COL  LAYER,ROW,COL  LAYER,ROW,COL  LAYER,ROW,COL  LAYER,ROW,COL
 ---------------------------------------------------------------------------
  1 -0.2096E+06  0 -0.1982E+06  0 -0.1531E+06  0 -0.6644E+05  0  -8219.    
   ( 20,  1, 76)  ( 20,  1, 76)  ( 20,  1, 76)  ( 20,  1, 75)  ( 22,  1, 73)
  0   3568.      0   3097.      0   2043.      0   882.2      1   775.9    
   ( 19,  1, 75)  ( 19,  1, 75)  ( 19,  1, 75)  ( 19,  1, 75)  ( 19,  1, 75)


 FLOW MODEL IS TRANSIENT
 FLOW MODEL CONTAINS CONSTANT-HEAD CELLS


 MAXIMUM STEPSIZE DURING WHICH ANY PARTICLE CANNOT MOVE MORE THAN ONE CELL
 =  33.06    (WHEN MIN. R.F.=1)  AT K=  20, I=   1, J=  76

 MAXIMUM STEPSIZE WHICH MEETS STABILITY CRITERION OF THE ADVECTION TERM
 (FOR PURE FINITE-DIFFERENCE OPTION, MIXELM=0) 
 =  24.53    (WHEN MIN. R.F.=1)  AT K=  18, I=   1, J=  76


 TOTAL NUMBER OF POINT SOURCES/SINKS PRESENT IN THE FLOW MODEL =    30

 MAXIMUM STEPSIZE WHICH MEETS STABILITY CRITERION OF THE SINK & SOURCE TERM
 =  292.9    (WHEN MIN. R.F.=1)  AT K=   3, I=   1, J=  73

 MAXIMUM STEPSIZE WHICH MEETS STABILITY CRITERION OF THE DISPERSION TERM
 =  7.338    (WHEN MIN. R.F.=1)  AT K=  16, I=   1, J=  71
     1 CALLS TO GCG PACKAGE FOR TRANSPORT TIME STEP  63 IN FLOW TIME STEP   1 STRESS PERIOD   1
     4 TOTAL ITERATIONS
0WARNING: NUMERICAL OSCILLATION ENCOUNTERED
 ONE OR MORE CELL CONCENTRATIONS LESS THAN CRHOREF
 SMALLEST DENSITY =  0.100E+04
 AT CELL (I,J,K) = (   1,  68,   8)

 
 SOLVING FOR HEAD 


     2 CALLS TO PCG ROUTINE FOR TIME STEP   1 IN STRESS PERIOD    1
    10 TOTAL ITERATIONS

 MAXIMUM HEAD CHANGE FOR EACH ITERATION (1 INDICATES THE FIRST INNER ITERATION):

    HEAD CHANGE    HEAD CHANGE    HEAD CHANGE    HEAD CHANGE    HEAD CHANGE 
   LAYER,ROW,COL  LAYER,ROW,COL  LAYER,ROW,COL  LAYER,ROW,COL  LAYER,ROW,COL
 ---------------------------------------------------------------------------
  1 -0.2027E-01  0 -0.1279E-01  0  0.1611E-01  0 -0.2217E-01  0 -0.1398E-01
   ( 15,  1, 75)  (  9,  1, 12)  ( 11,  1, 67)  ( 11,  1, 64)  ( 11,  1, 70)
  0  0.1656E-01  0  0.1746E-02  0  0.1180E-02  0 -0.5115E-03  1  0.4253E-03
   ( 11,  1, 70)  ( 11,  1, 70)  ( 11,  1, 71)  ( 11,  1, 70)  ( 11,  1, 70)

 MAXIMUM RESIDUAL FOR EACH ITERATION (1 INDICATES THE FIRST INNER ITERATION):

    RESIDUAL       RESIDUAL       RESIDUAL       RESIDUAL       RESIDUAL    
   LAYER,ROW,COL  LAYER,ROW,COL  LAYER,ROW,COL  LAYER,ROW,COL  LAYER,ROW,COL
 ---------------------------------------------------------------------------
  1  0.1251E+06  0  0.1175E+06  0  0.8834E+05  0  0.5280E+05  0   9599.    
   ( 23,  1, 76)  ( 23,  1, 76)  ( 23,  1, 75)  ( 23,  1, 75)  ( 23,  1, 75)
  0   1601.      0   1491.      0   1096.      0   633.9      1   550.7    
   ( 19,  1, 76)  ( 19,  1, 76)  ( 19,  1, 76)  ( 19,  1, 76)  ( 19,  1, 76)


 FLOW MODEL IS TRANSIENT
 FLOW MODEL CONTAINS CONSTANT-HEAD CELLS


 MAXIMUM STEPSIZE DURING WHICH ANY PARTICLE CANNOT MOVE MORE THAN ONE CELL
 =  42.42    (WHEN MIN. R.F.=1)  AT K=   2, I=   1, J=  71

 MAXIMUM STEPSIZE WHICH MEETS STABILITY CRITERION OF THE ADVECTION TERM
 (FOR PURE FINITE-DIFFERENCE OPTION, MIXELM=0) 
 =  25.76    (WHEN MIN. R.F.=1)  AT K=   2, I=   1, J=  71


 TOTAL NUMBER OF POINT SOURCES/SINKS PRESENT IN THE FLOW MODEL =    30

 MAXIMUM STEPSIZE WHICH MEETS STABILITY CRITERION OF THE SINK & SOURCE TERM
 =  291.5    (WHEN MIN. R.F.=1)  AT K=   3, I=   1, J=  73

 MAXIMUM STEPSIZE WHICH MEETS STABILITY CRITERION OF THE DISPERSION TERM
 =  7.351    (WHEN MIN. R.F.=1)  AT K=  16, I=   1, J=  83
     1 CALLS TO GCG PACKAGE FOR TRANSPORT TIME STEP  64 IN FLOW TIME STEP   1 STRESS PERIOD   1
     5 TOTAL ITERATIONS
0WARNING: NUMERICAL OSCILLATION ENCOUNTERED
 ONE OR MORE CELL CONCENTRATIONS LESS THAN CRHOREF
 SMALLEST DENSITY =  0.100E+04
 AT CELL (I,J,K) = (   1,  68,   7)

 
 SOLVING FOR HEAD 


     2 CALLS TO PCG ROUTINE FOR TIME STEP   1 IN STRESS PERIOD    1
    10 TOTAL ITERATIONS

 MAXIMUM HEAD CHANGE FOR EACH ITERATION (1 INDICATES THE FIRST INNER ITERATION):

    HEAD CHANGE    HEAD CHANGE    HEAD CHANGE    HEAD CHANGE    HEAD CHANGE 
   LAYER,ROW,COL  LAYER,ROW,COL  LAYER,ROW,COL  LAYER,ROW,COL  LAYER,ROW,COL
 ---------------------------------------------------------------------------
  1 -0.1903E-01  0 -0.1305E-01  0  0.1880E-01  0 -0.2123E-01  0 -0.1841E-01
   ( 23,  1, 71)  (  9,  1, 12)  ( 11,  1, 66)  ( 11,  1, 64)  ( 11,  1, 70)
  0  0.1917E-01  0  0.2457E-02  0  0.1623E-02  0  0.6108E-03  1  0.4648E-03
   ( 11,  1, 70)  ( 11,  1, 70)  ( 11,  1, 71)  ( 11,  1, 71)  ( 11,  1, 70)

 MAXIMUM RESIDUAL FOR EACH ITERATION (1 INDICATES THE FIRST INNER ITERATION):

    RESIDUAL       RESIDUAL       RESIDUAL       RESIDUAL       RESIDUAL    
   LAYER,ROW,COL  LAYER,ROW,COL  LAYER,ROW,COL  LAYER,ROW,COL  LAYER,ROW,COL
 ---------------------------------------------------------------------------
  1 -0.1196E+06  0 -0.1073E+06  0 -0.7473E+05  0 -0.5061E+05  0 -0.1048E+05
   ( 18,  1, 77)  ( 18,  1, 77)  ( 22,  1, 75)  ( 22,  1, 75)  ( 22,  1, 75)
  0   1328.      0  -1189.      0  -900.3      0  -613.9      1  -542.0    
   ( 17,  1, 88)  ( 20,  1, 74)  ( 20,  1, 74)  ( 20,  1, 74)  ( 20,  1, 74)


 FLOW MODEL IS TRANSIENT
 FLOW MODEL CONTAINS CONSTANT-HEAD CELLS


 MAXIMUM STEPSIZE DURING WHICH ANY PARTICLE CANNOT MOVE MORE THAN ONE CELL
 =  42.46    (WHEN MIN. R.F.=1)  AT K=   2, I=   1, J=  71

 MAXIMUM STEPSIZE WHICH MEETS STABILITY CRITERION OF THE ADVECTION TERM
 (FOR PURE FINITE-DIFFERENCE OPTION, MIXELM=0) 
 =  25.78    (WHEN MIN. R.F.=1)  AT K=   2, I=   1, J=  71


 TOTAL NUMBER OF POINT SOURCES/SINKS PRESENT IN THE FLOW MODEL =    30

 MAXIMUM STEPSIZE WHICH MEETS STABILITY CRITERION OF THE SINK & SOURCE TERM
 =  290.0    (WHEN MIN. R.F.=1)  AT K=   3, I=   1, J=  73

 MAXIMUM STEPSIZE WHICH MEETS STABILITY CRITERION OF THE DISPERSION TERM
 =  7.440    (WHEN MIN. R.F.=1)  AT K=  16, I=   1, J=  83
     1 CALLS TO GCG PACKAGE FOR TRANSPORT TIME STEP  65 IN FLOW TIME STEP   1 STRESS PERIOD   1
     5 TOTAL ITERATIONS
  MAXIMUM CONCENTRATION CHANGES FOR EACH ITERATION:
  MAX. CHANGE LAYER,ROW,COL MAX. CHANGE LAYER,ROW,COL MAX. CHANGE LAYER,ROW,COL MAX. CHANGE LAYER,ROW,COL MAX. CHANGE LAYER,ROW,COL
 ------------------------------------------------------------------------------------------------------------------------------------
   0.1012     ( 16,  1, 90)  0.2449E-02 ( 16,  1, 90)  0.4032E-04 ( 17,  1, 83)  0.2031E-05 ( 17,  1, 83)  0.1101E-06 ( 10,  1, 70)
0WARNING: NUMERICAL OSCILLATION ENCOUNTERED
 ONE OR MORE CELL CONCENTRATIONS LESS THAN CRHOREF
 SMALLEST DENSITY =  0.100E+04
 AT CELL (I,J,K) = (   1,  68,   7)

 
 SOLVING FOR HEAD 


     2 CALLS TO PCG ROUTINE FOR TIME STEP   1 IN STRESS PERIOD    1
    10 TOTAL ITERATIONS

 MAXIMUM HEAD CHANGE FOR EACH ITERATION (1 INDICATES THE FIRST INNER ITERATION):

    HEAD CHANGE    HEAD CHANGE    HEAD CHANGE    HEAD CHANGE    HEAD CHANGE 
   LAYER,ROW,COL  LAYER,ROW,COL  LAYER,ROW,COL  LAYER,ROW,COL  LAYER,ROW,COL
 ---------------------------------------------------------------------------
  1 -0.1925E-01  0 -0.1313E-01  0  0.1946E-01  0 -0.1997E-01  0 -0.1986E-01
   ( 23,  1, 72)  (  9,  1, 12)  ( 11,  1, 65)  ( 11,  1, 64)  ( 11,  1, 70)
  0  0.1960E-01  0  0.2769E-02  0  0.1514E-02  0 -0.5889E-03  1  0.5093E-03
   ( 11,  1, 70)  ( 11,  1, 70)  ( 11,  1, 71)  ( 11,  1, 70)  ( 11,  1, 70)

 MAXIMUM RESIDUAL FOR EACH ITERATION (1 INDICATES THE FIRST INNER ITERATION):

    RESIDUAL       RESIDUAL       RESIDUAL       RESIDUAL       RESIDUAL    
   LAYER,ROW,COL  LAYER,ROW,COL  LAYER,ROW,COL  LAYER,ROW,COL  LAYER,ROW,COL
 ---------------------------------------------------------------------------
  1 -0.1081E+06  0 -0.9586E+05  0 -0.6744E+05  0 -0.4608E+05  0  -8938.    
   ( 18,  1, 78)  ( 23,  1, 60)  ( 22,  1, 76)  ( 22,  1, 76)  ( 22,  1, 74)
  0   1364.      0   1128.      0   878.2      0   616.8      1  -502.2    
   ( 17,  1, 88)  ( 17,  1, 88)  ( 17,  1, 88)  ( 17,  1, 88)  ( 20,  1, 75)


 FLOW MODEL IS TRANSIENT
 FLOW MODEL CONTAINS CONSTANT-HEAD CELLS


 MAXIMUM STEPSIZE DURING WHICH ANY PARTICLE CANNOT MOVE MORE THAN ONE CELL
 =  42.51    (WHEN MIN. R.F.=1)  AT K=   2, I=   1, J=  71

 MAXIMUM STEPSIZE WHICH MEETS STABILITY CRITERION OF THE ADVECTION TERM
 (FOR PURE FINITE-DIFFERENCE OPTION, MIXELM=0) 
 =  25.80    (WHEN MIN. R.F.=1)  AT K=   2, I=   1, J=  71


 TOTAL NUMBER OF POINT SOURCES/SINKS PRESENT IN THE FLOW MODEL =    30

 MAXIMUM STEPSIZE WHICH MEETS STABILITY CRITERION OF THE SINK & SOURCE TERM
 =  288.5    (WHEN MIN. R.F.=1)  AT K=   3, I=   1, J=  73

 MAXIMUM STEPSIZE WHICH MEETS STABILITY CRITERION OF THE DISPERSION TERM
 =  7.456    (WHEN MIN. R.F.=1)  AT K=  16, I=   1, J=  83
     1 CALLS TO GCG PACKAGE FOR TRANSPORT TIME STEP  66 IN FLOW TIME STEP   1 STRESS PERIOD   1
     5 TOTAL ITERATIONS
0WARNING: NUMERICAL OSCILLATION ENCOUNTERED
 ONE OR MORE CELL CONCENTRATIONS LESS THAN CRHOREF
 SMALLEST DENSITY =  0.100E+04
 AT CELL (I,J,K) = (   1,  68,   7)

 
 SOLVING FOR HEAD 


     2 CALLS TO PCG ROUTINE FOR TIME STEP   1 IN STRESS PERIOD    1
    10 TOTAL ITERATIONS

 MAXIMUM HEAD CHANGE FOR EACH ITERATION (1 INDICATES THE FIRST INNER ITERATION):

    HEAD CHANGE    HEAD CHANGE    HEAD CHANGE    HEAD CHANGE    HEAD CHANGE 
   LAYER,ROW,COL  LAYER,ROW,COL  LAYER,ROW,COL  LAYER,ROW,COL  LAYER,ROW,COL
 ---------------------------------------------------------------------------
  1 -0.1861E-01  0 -0.1258E-01  0  0.1915E-01  0 -0.1809E-01  0 -0.1993E-01
   ( 23,  1, 71)  (  9,  1, 12)  ( 11,  1, 66)  ( 11,  1, 64)  ( 11,  1, 70)
  0  0.1881E-01  0  0.2818E-02  0  0.1618E-02  0  0.6202E-03  1  0.4879E-03
   ( 11,  1, 70)  ( 11,  1, 70)  ( 11,  1, 71)  ( 11,  1, 71)  ( 11,  1, 70)

 MAXIMUM RESIDUAL FOR EACH ITERATION (1 INDICATES THE FIRST INNER ITERATION):

    RESIDUAL       RESIDUAL       RESIDUAL       RESIDUAL       RESIDUAL    
   LAYER,ROW,COL  LAYER,ROW,COL  LAYER,ROW,COL  LAYER,ROW,COL  LAYER,ROW,COL
 ---------------------------------------------------------------------------
  1 -0.1026E+06  0 -0.9358E+05  0 -0.5675E+05  0 -0.3837E+05  0  -8006.    
   ( 23,  1, 60)  ( 23,  1, 60)  ( 23,  1, 60)  ( 23,  1, 60)  ( 22,  1, 75)
  0   1268.      0   1039.      0   815.0      0   580.2      1   478.2    
   ( 17,  1, 88)  ( 17,  1, 88)  ( 17,  1, 88)  ( 17,  1, 88)  ( 18,  1, 77)


 FLOW MODEL IS TRANSIENT
 FLOW MODEL CONTAINS CONSTANT-HEAD CELLS


 MAXIMUM STEPSIZE DURING WHICH ANY PARTICLE CANNOT MOVE MORE THAN ONE CELL
 =  42.56    (WHEN MIN. R.F.=1)  AT K=   2, I=   1, J=  71

 MAXIMUM STEPSIZE WHICH MEETS STABILITY CRITERION OF THE ADVECTION TERM
 (FOR PURE FINITE-DIFFERENCE OPTION, MIXELM=0) 
 =  25.82    (WHEN MIN. R.F.=1)  AT K=   2, I=   1, J=  71


 TOTAL NUMBER OF POINT SOURCES/SINKS PRESENT IN THE FLOW MODEL =    30

 MAXIMUM STEPSIZE WHICH MEETS STABILITY CRITERION OF THE SINK & SOURCE TERM
 =  287.0    (WHEN MIN. R.F.=1)  AT K=   3, I=   1, J=  73

 MAXIMUM STEPSIZE WHICH MEETS STABILITY CRITERION OF THE DISPERSION TERM
 =  7.535    (WHEN MIN. R.F.=1)  AT K=  16, I=   1, J=  84
     1 CALLS TO GCG PACKAGE FOR TRANSPORT TIME STEP  67 IN FLOW TIME STEP   1 STRESS PERIOD   1
     5 TOTAL ITERATIONS
0WARNING: NUMERICAL OSCILLATION ENCOUNTERED
 ONE OR MORE CELL CONCENTRATIONS LESS THAN CRHOREF
 SMALLEST DENSITY =  0.100E+04
 AT CELL (I,J,K) = (   1,  68,   7)

 
 SOLVING FOR HEAD 


     2 CALLS TO PCG ROUTINE FOR TIME STEP   1 IN STRESS PERIOD    1
    10 TOTAL ITERATIONS

 MAXIMUM HEAD CHANGE FOR EACH ITERATION (1 INDICATES THE FIRST INNER ITERATION):

    HEAD CHANGE    HEAD CHANGE    HEAD CHANGE    HEAD CHANGE    HEAD CHANGE 
   LAYER,ROW,COL  LAYER,ROW,COL  LAYER,ROW,COL  LAYER,ROW,COL  LAYER,ROW,COL
 ---------------------------------------------------------------------------
  1 -0.1784E-01  0 -0.1211E-01  0  0.1856E-01  0 -0.1681E-01  0 -0.1971E-01
   ( 23,  1, 72)  (  9,  1, 12)  ( 11,  1, 65)  ( 11,  1, 64)  ( 11,  1, 70)
  0  0.1820E-01  0  0.2813E-02  0  0.1439E-02  0 -0.5743E-03  1  0.4874E-03
   ( 11,  1, 70)  ( 11,  1, 70)  ( 11,  1, 71)  ( 11,  1, 70)  ( 11,  1, 70)

 MAXIMUM RESIDUAL FOR EACH ITERATION (1 INDICATES THE FIRST INNER ITERATION):

    RESIDUAL       RESIDUAL       RESIDUAL       RESIDUAL       RESIDUAL    
   LAYER,ROW,COL  LAYER,ROW,COL  LAYER,ROW,COL  LAYER,ROW,COL  LAYER,ROW,COL
 ---------------------------------------------------------------------------
  1 -0.9783E+05  0 -0.8861E+05  0 -0.5034E+05  0 -0.3548E+05  0  -7060.    
   ( 23,  1, 60)  ( 23,  1, 60)  ( 16,  1, 88)  ( 16,  1, 88)  ( 16,  1, 88)
  0   1144.      0  -951.3      0  -758.7      0  -540.3      1   453.5    
   ( 17,  1, 88)  ( 19,  1, 75)  ( 19,  1, 75)  ( 19,  1, 75)  ( 18,  1, 78)


 FLOW MODEL IS TRANSIENT
 FLOW MODEL CONTAINS CONSTANT-HEAD CELLS


 MAXIMUM STEPSIZE DURING WHICH ANY PARTICLE CANNOT MOVE MORE THAN ONE CELL
 =  42.61    (WHEN MIN. R.F.=1)  AT K=   2, I=   1, J=  71

 MAXIMUM STEPSIZE WHICH MEETS STABILITY CRITERION OF THE ADVECTION TERM
 (FOR PURE FINITE-DIFFERENCE OPTION, MIXELM=0) 
 =  25.85    (WHEN MIN. R.F.=1)  AT K=   2, I=   1, J=  71


 TOTAL NUMBER OF POINT SOURCES/SINKS PRESENT IN THE FLOW MODEL =    30

 MAXIMUM STEPSIZE WHICH MEETS STABILITY CRITERION OF THE SINK & SOURCE TERM
 =  285.5    (WHEN MIN. R.F.=1)  AT K=   3, I=   1, J=  73

 MAXIMUM STEPSIZE WHICH MEETS STABILITY CRITERION OF THE DISPERSION TERM
 =  7.567    (WHEN MIN. R.F.=1)  AT K=  16, I=   1, J=  83
     1 CALLS TO GCG PACKAGE FOR TRANSPORT TIME STEP  68 IN FLOW TIME STEP   1 STRESS PERIOD   1
     5 TOTAL ITERATIONS
0WARNING: NUMERICAL OSCILLATION ENCOUNTERED
 ONE OR MORE CELL CONCENTRATIONS LESS THAN CRHOREF
 SMALLEST DENSITY =  0.100E+04
 AT CELL (I,J,K) = (   1,  68,   7)

 
 SOLVING FOR HEAD 


     2 CALLS TO PCG ROUTINE FOR TIME STEP   1 IN STRESS PERIOD    1
    10 TOTAL ITERATIONS

 MAXIMUM HEAD CHANGE FOR EACH ITERATION (1 INDICATES THE FIRST INNER ITERATION):

    HEAD CHANGE    HEAD CHANGE    HEAD CHANGE    HEAD CHANGE    HEAD CHANGE 
   LAYER,ROW,COL  LAYER,ROW,COL  LAYER,ROW,COL  LAYER,ROW,COL  LAYER,ROW,COL
 ---------------------------------------------------------------------------
  1 -0.1729E-01  0 -0.1169E-01  0  0.1823E-01  0 -0.1581E-01  0 -0.1937E-01
   ( 23,  1, 71)  (  9,  1, 12)  ( 11,  1, 66)  ( 11,  1, 64)  ( 11,  1, 70)
  0  0.1742E-01  0  0.2776E-02  0  0.1499E-02  0  0.5897E-03  1  0.4616E-03
   ( 11,  1, 70)  ( 11,  1, 70)  ( 11,  1, 71)  ( 11,  1, 71)  ( 11,  1, 70)

 MAXIMUM RESIDUAL FOR EACH ITERATION (1 INDICATES THE FIRST INNER ITERATION):

    RESIDUAL       RESIDUAL       RESIDUAL       RESIDUAL       RESIDUAL    
   LAYER,ROW,COL  LAYER,ROW,COL  LAYER,ROW,COL  LAYER,ROW,COL  LAYER,ROW,COL
 ---------------------------------------------------------------------------
  1 -0.9913E+05  0 -0.8968E+05  0 -0.4899E+05  0 -0.3488E+05  0  -7048.    
   ( 16,  1, 88)  ( 16,  1, 88)  ( 16,  1, 88)  ( 16,  1, 88)  ( 16,  1, 88)
  0  -1110.      0  -915.9      0  -739.3      0  -535.9      1   412.4    
   ( 16,  1, 89)  ( 19,  1, 74)  ( 19,  1, 74)  ( 19,  1, 74)  ( 18,  1, 79)


 FLOW MODEL IS TRANSIENT
 FLOW MODEL CONTAINS CONSTANT-HEAD CELLS


 MAXIMUM STEPSIZE DURING WHICH ANY PARTICLE CANNOT MOVE MORE THAN ONE CELL
 =  42.67    (WHEN MIN. R.F.=1)  AT K=   2, I=   1, J=  71

 MAXIMUM STEPSIZE WHICH MEETS STABILITY CRITERION OF THE ADVECTION TERM
 (FOR PURE FINITE-DIFFERENCE OPTION, MIXELM=0) 
 =  25.87    (WHEN MIN. R.F.=1)  AT K=   2, I=   1, J=  71


 TOTAL NUMBER OF POINT SOURCES/SINKS PRESENT IN THE FLOW MODEL =    30

 MAXIMUM STEPSIZE WHICH MEETS STABILITY CRITERION OF THE SINK & SOURCE TERM
 =  284.0    (WHEN MIN. R.F.=1)  AT K=   3, I=   1, J=  73

 MAXIMUM STEPSIZE WHICH MEETS STABILITY CRITERION OF THE DISPERSION TERM
 =  7.631    (WHEN MIN. R.F.=1)  AT K=  16, I=   1, J=  84
     1 CALLS TO GCG PACKAGE FOR TRANSPORT TIME STEP  69 IN FLOW TIME STEP   1 STRESS PERIOD   1
     5 TOTAL ITERATIONS
0WARNING: NUMERICAL OSCILLATION ENCOUNTERED
 ONE OR MORE CELL CONCENTRATIONS LESS THAN CRHOREF
 SMALLEST DENSITY =  0.100E+04
 AT CELL (I,J,K) = (   1,  68,   7)

 
 SOLVING FOR HEAD 


     2 CALLS TO PCG ROUTINE FOR TIME STEP   1 IN STRESS PERIOD    1
    10 TOTAL ITERATIONS

 MAXIMUM HEAD CHANGE FOR EACH ITERATION (1 INDICATES THE FIRST INNER ITERATION):

    HEAD CHANGE    HEAD CHANGE    HEAD CHANGE    HEAD CHANGE    HEAD CHANGE 
   LAYER,ROW,COL  LAYER,ROW,COL  LAYER,ROW,COL  LAYER,ROW,COL  LAYER,ROW,COL
 ---------------------------------------------------------------------------
  1 -0.1666E-01  0 -0.1133E-01  0  0.1767E-01  0 -0.1506E-01  0 -0.1895E-01
   ( 23,  1, 72)  (  9,  1, 12)  ( 11,  1, 65)  ( 11,  1, 64)  ( 11,  1, 70)
  0  0.1685E-01  0  0.2710E-02  0  0.1334E-02  0 -0.5414E-03  1  0.4597E-03
   ( 11,  1, 70)  ( 11,  1, 70)  ( 11,  1, 71)  ( 11,  1, 70)  ( 11,  1, 70)

 MAXIMUM RESIDUAL FOR EACH ITERATION (1 INDICATES THE FIRST INNER ITERATION):

    RESIDUAL       RESIDUAL       RESIDUAL       RESIDUAL       RESIDUAL    
   LAYER,ROW,COL  LAYER,ROW,COL  LAYER,ROW,COL  LAYER,ROW,COL  LAYER,ROW,COL
 ---------------------------------------------------------------------------
  1 -0.1018E+06  0 -0.9174E+05  0 -0.4740E+05  0 -0.3395E+05  0  -6925.    
   ( 16,  1, 88)  ( 16,  1, 88)  ( 16,  1, 88)  ( 16,  1, 88)  ( 16,  1, 88)
  0  -1072.      0  -868.3      0  -704.6      0  -508.6      1   400.1    
   ( 16,  1, 89)  ( 19,  1, 75)  ( 19,  1, 75)  ( 19,  1, 75)  ( 17,  1, 89)


 FLOW MODEL IS TRANSIENT
 FLOW MODEL CONTAINS CONSTANT-HEAD CELLS


 MAXIMUM STEPSIZE DURING WHICH ANY PARTICLE CANNOT MOVE MORE THAN ONE CELL
 =  42.72    (WHEN MIN. R.F.=1)  AT K=   2, I=   1, J=  71

 MAXIMUM STEPSIZE WHICH MEETS STABILITY CRITERION OF THE ADVECTION TERM
 (FOR PURE FINITE-DIFFERENCE OPTION, MIXELM=0) 
 =  25.90    (WHEN MIN. R.F.=1)  AT K=   2, I=   1, J=  71


 TOTAL NUMBER OF POINT SOURCES/SINKS PRESENT IN THE FLOW MODEL =    30

 MAXIMUM STEPSIZE WHICH MEETS STABILITY CRITERION OF THE SINK & SOURCE TERM
 =  282.6    (WHEN MIN. R.F.=1)  AT K=   3, I=   1, J=  73

 MAXIMUM STEPSIZE WHICH MEETS STABILITY CRITERION OF THE DISPERSION TERM
 =  7.684    (WHEN MIN. R.F.=1)  AT K=  16, I=   1, J=  83
     1 CALLS TO GCG PACKAGE FOR TRANSPORT TIME STEP  70 IN FLOW TIME STEP   1 STRESS PERIOD   1
     5 TOTAL ITERATIONS
  MAXIMUM CONCENTRATION CHANGES FOR EACH ITERATION:
  MAX. CHANGE LAYER,ROW,COL MAX. CHANGE LAYER,ROW,COL MAX. CHANGE LAYER,ROW,COL MAX. CHANGE LAYER,ROW,COL MAX. CHANGE LAYER,ROW,COL
 ------------------------------------------------------------------------------------------------------------------------------------
   0.1111     ( 16,  1, 90)  0.1670E-02 ( 16,  1, 90)  0.3416E-04 ( 17,  1, 83)  0.1505E-05 ( 16,  1, 84)  0.9131E-07 ( 10,  1, 70)



 >>>>>>>>>>>>>>>>>>>>>>>>>>>>>>>>>>>>>>>>>>>>>>>>>>>>>>>FOR COMPONENT NO. 01<<<<<<<<<<<<<<<<<<<<<<<<<<<<<<<<<<<<<<<<<<<<<<<<<<<<<<<


                                            -------------------------------------------
                                                      TRANSPORT STEP NO.   70
                                            -------------------------------------------

 TOTAL ELAPSED TIME SINCE BEGINNING OF SIMULATION =   599.1025    D   
 .....................................................................

                     CUMMULATIVE MASS BUDGETS AT END OF TRANSPORT STEP   70, TIME STEP    1, STRESS PERIOD    1
                     ------------------------------------------------------------------------------------------

                                                             IN                           OUT
                                                      ----------------             ----------------
                               CONSTANT CONCENTRATION:    0.000000                    0.000000    
                                        CONSTANT HEAD:    1693416.                   -4138539.    
                                             RECHARGE:    0.000000                    0.000000    
                                MASS STORAGE (SOLUTE):   0.1959958E+08              -0.1715442E+08
                            ---------------------------------------------------------------------------
                                              [TOTAL]:   0.2129409E+08 KG           -0.2129410E+08 KG  

                                                          NET (IN - OUT):   -1.232886    
                                                   DISCREPANCY (PERCENT):  -0.5789803E-05
0WARNING: NUMERICAL OSCILLATION ENCOUNTERED
 ONE OR MORE CELL CONCENTRATIONS LESS THAN CRHOREF
 SMALLEST DENSITY =  0.100E+04
 AT CELL (I,J,K) = (   1,  68,   7)

 
 SOLVING FOR HEAD 


     2 CALLS TO PCG ROUTINE FOR TIME STEP   1 IN STRESS PERIOD    1
    10 TOTAL ITERATIONS

 MAXIMUM HEAD CHANGE FOR EACH ITERATION (1 INDICATES THE FIRST INNER ITERATION):

    HEAD CHANGE    HEAD CHANGE    HEAD CHANGE    HEAD CHANGE    HEAD CHANGE 
   LAYER,ROW,COL  LAYER,ROW,COL  LAYER,ROW,COL  LAYER,ROW,COL  LAYER,ROW,COL
 ---------------------------------------------------------------------------
  1 -0.1626E-01  0 -0.1102E-01  0  0.1739E-01  0 -0.1450E-01  0 -0.1857E-01
   ( 23,  1, 71)  (  9,  1, 12)  ( 11,  1, 66)  ( 11,  1, 64)  ( 11,  1, 70)
  0  0.1626E-01  0  0.2658E-02  0  0.1388E-02  0  0.5605E-03  1  0.4415E-03
   ( 11,  1, 70)  ( 11,  1, 70)  ( 11,  1, 71)  ( 11,  1, 71)  ( 11,  1, 70)

 MAXIMUM RESIDUAL FOR EACH ITERATION (1 INDICATES THE FIRST INNER ITERATION):

    RESIDUAL       RESIDUAL       RESIDUAL       RESIDUAL       RESIDUAL    
   LAYER,ROW,COL  LAYER,ROW,COL  LAYER,ROW,COL  LAYER,ROW,COL  LAYER,ROW,COL
 ---------------------------------------------------------------------------
  1 -0.1030E+06  0 -0.9262E+05  0 -0.4590E+05  0 -0.3297E+05  0  -6745.    
   ( 16,  1, 88)  ( 16,  1, 88)  ( 16,  1, 88)  ( 16,  1, 88)  ( 16,  1, 88)
  0   1130.      0   925.8      0   717.9      0   523.3      1   434.0    
   ( 17,  1, 89)  ( 17,  1, 89)  ( 17,  1, 89)  ( 17,  1, 89)  ( 17,  1, 89)


 FLOW MODEL IS TRANSIENT
 FLOW MODEL CONTAINS CONSTANT-HEAD CELLS


 MAXIMUM STEPSIZE DURING WHICH ANY PARTICLE CANNOT MOVE MORE THAN ONE CELL
 =  42.77    (WHEN MIN. R.F.=1)  AT K=   2, I=   1, J=  71

 MAXIMUM STEPSIZE WHICH MEETS STABILITY CRITERION OF THE ADVECTION TERM
 (FOR PURE FINITE-DIFFERENCE OPTION, MIXELM=0) 
 =  25.92    (WHEN MIN. R.F.=1)  AT K=   2, I=   1, J=  71


 TOTAL NUMBER OF POINT SOURCES/SINKS PRESENT IN THE FLOW MODEL =    30

 MAXIMUM STEPSIZE WHICH MEETS STABILITY CRITERION OF THE SINK & SOURCE TERM
 =  281.3    (WHEN MIN. R.F.=1)  AT K=   3, I=   1, J=  73

 MAXIMUM STEPSIZE WHICH MEETS STABILITY CRITERION OF THE DISPERSION TERM
 =  7.733    (WHEN MIN. R.F.=1)  AT K=  16, I=   1, J=  84
     1 CALLS TO GCG PACKAGE FOR TRANSPORT TIME STEP  71 IN FLOW TIME STEP   1 STRESS PERIOD   1
     5 TOTAL ITERATIONS
0WARNING: NUMERICAL OSCILLATION ENCOUNTERED
 ONE OR MORE CELL CONCENTRATIONS LESS THAN CRHOREF
 SMALLEST DENSITY =  0.100E+04
 AT CELL (I,J,K) = (   1,  68,   7)

 
 SOLVING FOR HEAD 


     2 CALLS TO PCG ROUTINE FOR TIME STEP   1 IN STRESS PERIOD    1
    10 TOTAL ITERATIONS

 MAXIMUM HEAD CHANGE FOR EACH ITERATION (1 INDICATES THE FIRST INNER ITERATION):

    HEAD CHANGE    HEAD CHANGE    HEAD CHANGE    HEAD CHANGE    HEAD CHANGE 
   LAYER,ROW,COL  LAYER,ROW,COL  LAYER,ROW,COL  LAYER,ROW,COL  LAYER,ROW,COL
 ---------------------------------------------------------------------------
  1 -0.1580E-01  0 -0.1075E-01  0  0.1687E-01  0 -0.1403E-01  0 -0.1811E-01
   ( 23,  1, 72)  (  9,  1, 12)  ( 11,  1, 65)  ( 11,  1, 64)  ( 11,  1, 70)
  0  0.1577E-01  0  0.2578E-02  0  0.1228E-02  0 -0.5106E-03  1  0.4349E-03
   ( 11,  1, 70)  ( 11,  1, 70)  ( 11,  1, 71)  ( 11,  1, 70)  ( 11,  1, 70)

 MAXIMUM RESIDUAL FOR EACH ITERATION (1 INDICATES THE FIRST INNER ITERATION):

    RESIDUAL       RESIDUAL       RESIDUAL       RESIDUAL       RESIDUAL    
   LAYER,ROW,COL  LAYER,ROW,COL  LAYER,ROW,COL  LAYER,ROW,COL  LAYER,ROW,COL
 ---------------------------------------------------------------------------
  1 -0.1026E+06  0 -0.9219E+05  0 -0.4454E+05  0 -0.3206E+05  0  -6588.    
   ( 16,  1, 88)  ( 16,  1, 88)  ( 16,  1, 88)  ( 16,  1, 88)  ( 16,  1, 88)
  0   1159.      0   960.5      0   749.6      0   540.3      1   443.9    
   ( 17,  1, 89)  ( 17,  1, 89)  ( 17,  1, 89)  ( 17,  1, 89)  ( 17,  1, 89)


 FLOW MODEL IS TRANSIENT
 FLOW MODEL CONTAINS CONSTANT-HEAD CELLS


 MAXIMUM STEPSIZE DURING WHICH ANY PARTICLE CANNOT MOVE MORE THAN ONE CELL
 =  42.82    (WHEN MIN. R.F.=1)  AT K=   2, I=   1, J=  71

 MAXIMUM STEPSIZE WHICH MEETS STABILITY CRITERION OF THE ADVECTION TERM
 (FOR PURE FINITE-DIFFERENCE OPTION, MIXELM=0) 
 =  25.95    (WHEN MIN. R.F.=1)  AT K=   2, I=   1, J=  71


 TOTAL NUMBER OF POINT SOURCES/SINKS PRESENT IN THE FLOW MODEL =    30

 MAXIMUM STEPSIZE WHICH MEETS STABILITY CRITERION OF THE SINK & SOURCE TERM
 =  279.9    (WHEN MIN. R.F.=1)  AT K=   3, I=   1, J=  73

 MAXIMUM STEPSIZE WHICH MEETS STABILITY CRITERION OF THE DISPERSION TERM
 =  7.802    (WHEN MIN. R.F.=1)  AT K=  16, I=   1, J=  84
     1 CALLS TO GCG PACKAGE FOR TRANSPORT TIME STEP  72 IN FLOW TIME STEP   1 STRESS PERIOD   1
     5 TOTAL ITERATIONS
0WARNING: NUMERICAL OSCILLATION ENCOUNTERED
 ONE OR MORE CELL CONCENTRATIONS LESS THAN CRHOREF
 SMALLEST DENSITY =  0.100E+04
 AT CELL (I,J,K) = (   1,  68,   7)

 
 SOLVING FOR HEAD 


     2 CALLS TO PCG ROUTINE FOR TIME STEP   1 IN STRESS PERIOD    1
    10 TOTAL ITERATIONS

 MAXIMUM HEAD CHANGE FOR EACH ITERATION (1 INDICATES THE FIRST INNER ITERATION):

    HEAD CHANGE    HEAD CHANGE    HEAD CHANGE    HEAD CHANGE    HEAD CHANGE 
   LAYER,ROW,COL  LAYER,ROW,COL  LAYER,ROW,COL  LAYER,ROW,COL  LAYER,ROW,COL
 ---------------------------------------------------------------------------
  1 -0.1552E-01  0 -0.1054E-01  0  0.1668E-01  0 -0.1376E-01  0 -0.1786E-01
   ( 23,  1, 71)  (  9,  1, 12)  ( 11,  1, 66)  ( 11,  1, 64)  ( 11,  1, 70)
  0  0.1542E-01  0  0.2552E-02  0  0.1293E-02  0  0.5344E-03  1  0.4243E-03
   ( 11,  1, 70)  ( 11,  1, 70)  ( 11,  1, 71)  ( 11,  1, 71)  ( 11,  1, 70)

 MAXIMUM RESIDUAL FOR EACH ITERATION (1 INDICATES THE FIRST INNER ITERATION):

    RESIDUAL       RESIDUAL       RESIDUAL       RESIDUAL       RESIDUAL    
   LAYER,ROW,COL  LAYER,ROW,COL  LAYER,ROW,COL  LAYER,ROW,COL  LAYER,ROW,COL
 ---------------------------------------------------------------------------
  1 -0.1012E+06  0 -0.9087E+05  0 -0.4320E+05  0 -0.3106E+05  0  -6440.    
   ( 16,  1, 88)  ( 16,  1, 88)  ( 16,  1, 88)  ( 16,  1, 88)  ( 16,  1, 89)
  0   1333.      0   1081.      0   852.6      0   616.6      1   504.7    
   ( 17,  1, 89)  ( 17,  1, 89)  ( 17,  1, 89)  ( 17,  1, 89)  ( 17,  1, 89)


 FLOW MODEL IS TRANSIENT
 FLOW MODEL CONTAINS CONSTANT-HEAD CELLS


 MAXIMUM STEPSIZE DURING WHICH ANY PARTICLE CANNOT MOVE MORE THAN ONE CELL
 =  42.88    (WHEN MIN. R.F.=1)  AT K=   2, I=   1, J=  71

 MAXIMUM STEPSIZE WHICH MEETS STABILITY CRITERION OF THE ADVECTION TERM
 (FOR PURE FINITE-DIFFERENCE OPTION, MIXELM=0) 
 =  25.97    (WHEN MIN. R.F.=1)  AT K=   2, I=   1, J=  71


 TOTAL NUMBER OF POINT SOURCES/SINKS PRESENT IN THE FLOW MODEL =    30

 MAXIMUM STEPSIZE WHICH MEETS STABILITY CRITERION OF THE SINK & SOURCE TERM
 =  278.7    (WHEN MIN. R.F.=1)  AT K=   3, I=   1, J=  73

 MAXIMUM STEPSIZE WHICH MEETS STABILITY CRITERION OF THE DISPERSION TERM
 =  7.840    (WHEN MIN. R.F.=1)  AT K=  16, I=   1, J=  84
     1 CALLS TO GCG PACKAGE FOR TRANSPORT TIME STEP  73 IN FLOW TIME STEP   1 STRESS PERIOD   1
     5 TOTAL ITERATIONS
0WARNING: NUMERICAL OSCILLATION ENCOUNTERED
 ONE OR MORE CELL CONCENTRATIONS LESS THAN CRHOREF
 SMALLEST DENSITY =  0.100E+04
 AT CELL (I,J,K) = (   1,  68,   7)

 
 SOLVING FOR HEAD 


     2 CALLS TO PCG ROUTINE FOR TIME STEP   1 IN STRESS PERIOD    1
    10 TOTAL ITERATIONS

 MAXIMUM HEAD CHANGE FOR EACH ITERATION (1 INDICATES THE FIRST INNER ITERATION):

    HEAD CHANGE    HEAD CHANGE    HEAD CHANGE    HEAD CHANGE    HEAD CHANGE 
   LAYER,ROW,COL  LAYER,ROW,COL  LAYER,ROW,COL  LAYER,ROW,COL  LAYER,ROW,COL
 ---------------------------------------------------------------------------
  1 -0.1522E-01  0 -0.1031E-01  0  0.1621E-01  0 -0.1340E-01  0 -0.1743E-01
   ( 23,  1, 72)  (  9,  1, 12)  ( 11,  1, 65)  ( 11,  1, 64)  ( 11,  1, 70)
  0  0.1500E-01  0  0.2475E-02  0  0.1140E-02  0 -0.4858E-03  1  0.4130E-03
   ( 11,  1, 70)  ( 11,  1, 70)  ( 11,  1, 71)  ( 11,  1, 70)  ( 11,  1, 70)

 MAXIMUM RESIDUAL FOR EACH ITERATION (1 INDICATES THE FIRST INNER ITERATION):

    RESIDUAL       RESIDUAL       RESIDUAL       RESIDUAL       RESIDUAL    
   LAYER,ROW,COL  LAYER,ROW,COL  LAYER,ROW,COL  LAYER,ROW,COL  LAYER,ROW,COL
 ---------------------------------------------------------------------------
  1 -0.9799E+05  0 -0.8800E+05  0 -0.4193E+05  0 -0.3021E+05  0  -6162.    
   ( 16,  1, 88)  ( 16,  1, 88)  ( 16,  1, 88)  ( 16,  1, 88)  ( 16,  1, 88)
  0   1249.      0   1037.      0   819.2      0   585.2      1   475.1    
   ( 17,  1, 89)  ( 17,  1, 89)  ( 17,  1, 89)  ( 17,  1, 89)  ( 17,  1, 89)


 FLOW MODEL IS TRANSIENT
 FLOW MODEL CONTAINS CONSTANT-HEAD CELLS


 MAXIMUM STEPSIZE DURING WHICH ANY PARTICLE CANNOT MOVE MORE THAN ONE CELL
 =  42.93    (WHEN MIN. R.F.=1)  AT K=   2, I=   1, J=  71

 MAXIMUM STEPSIZE WHICH MEETS STABILITY CRITERION OF THE ADVECTION TERM
 (FOR PURE FINITE-DIFFERENCE OPTION, MIXELM=0) 
 =  26.00    (WHEN MIN. R.F.=1)  AT K=   2, I=   1, J=  71


 TOTAL NUMBER OF POINT SOURCES/SINKS PRESENT IN THE FLOW MODEL =    30

 MAXIMUM STEPSIZE WHICH MEETS STABILITY CRITERION OF THE SINK & SOURCE TERM
 =  277.4    (WHEN MIN. R.F.=1)  AT K=   3, I=   1, J=  73

 MAXIMUM STEPSIZE WHICH MEETS STABILITY CRITERION OF THE DISPERSION TERM
 =  7.909    (WHEN MIN. R.F.=1)  AT K=  16, I=   1, J=  84
     1 CALLS TO GCG PACKAGE FOR TRANSPORT TIME STEP  74 IN FLOW TIME STEP   1 STRESS PERIOD   1
     5 TOTAL ITERATIONS
0WARNING: NUMERICAL OSCILLATION ENCOUNTERED
 ONE OR MORE CELL CONCENTRATIONS LESS THAN CRHOREF
 SMALLEST DENSITY =  0.100E+04
 AT CELL (I,J,K) = (   1,  68,   7)

 
 SOLVING FOR HEAD 


     2 CALLS TO PCG ROUTINE FOR TIME STEP   1 IN STRESS PERIOD    1
    10 TOTAL ITERATIONS

 MAXIMUM HEAD CHANGE FOR EACH ITERATION (1 INDICATES THE FIRST INNER ITERATION):

    HEAD CHANGE    HEAD CHANGE    HEAD CHANGE    HEAD CHANGE    HEAD CHANGE 
   LAYER,ROW,COL  LAYER,ROW,COL  LAYER,ROW,COL  LAYER,ROW,COL  LAYER,ROW,COL
 ---------------------------------------------------------------------------
  1 -0.1501E-01  0 -0.1018E-01  0  0.1611E-01  0 -0.1331E-01  0 -0.1731E-01
   ( 23,  1, 71)  (  9,  1, 12)  ( 11,  1, 66)  ( 11,  1, 64)  ( 11,  1, 70)
  0  0.1484E-01  0  0.2476E-02  0  0.1217E-02  0  0.5114E-03  1  0.4023E-03
   ( 11,  1, 70)  ( 11,  1, 70)  ( 11,  1, 71)  ( 11,  1, 71)  ( 11,  1, 70)

 MAXIMUM RESIDUAL FOR EACH ITERATION (1 INDICATES THE FIRST INNER ITERATION):

    RESIDUAL       RESIDUAL       RESIDUAL       RESIDUAL       RESIDUAL    
   LAYER,ROW,COL  LAYER,ROW,COL  LAYER,ROW,COL  LAYER,ROW,COL  LAYER,ROW,COL
 ---------------------------------------------------------------------------
  1 -0.9564E+05  0 -0.8596E+05  0 -0.4163E+05  0 -0.3053E+05  0  -7033.    
   ( 16,  1, 89)  ( 16,  1, 89)  ( 16,  1, 89)  ( 16,  1, 89)  ( 16,  1, 89)
  0   1468.      0   1179.      0   940.9      0   677.5      1   551.4    
   ( 17,  1, 89)  ( 17,  1, 89)  ( 17,  1, 89)  ( 17,  1, 89)  ( 17,  1, 89)


 FLOW MODEL IS TRANSIENT
 FLOW MODEL CONTAINS CONSTANT-HEAD CELLS


 MAXIMUM STEPSIZE DURING WHICH ANY PARTICLE CANNOT MOVE MORE THAN ONE CELL
 =  42.99    (WHEN MIN. R.F.=1)  AT K=   2, I=   1, J=  71

 MAXIMUM STEPSIZE WHICH MEETS STABILITY CRITERION OF THE ADVECTION TERM
 (FOR PURE FINITE-DIFFERENCE OPTION, MIXELM=0) 
 =  26.02    (WHEN MIN. R.F.=1)  AT K=   2, I=   1, J=  71


 TOTAL NUMBER OF POINT SOURCES/SINKS PRESENT IN THE FLOW MODEL =    30

 MAXIMUM STEPSIZE WHICH MEETS STABILITY CRITERION OF THE SINK & SOURCE TERM
 =  276.2    (WHEN MIN. R.F.=1)  AT K=   3, I=   1, J=  73

 MAXIMUM STEPSIZE WHICH MEETS STABILITY CRITERION OF THE DISPERSION TERM
 =  7.947    (WHEN MIN. R.F.=1)  AT K=  16, I=   1, J=  84
     1 CALLS TO GCG PACKAGE FOR TRANSPORT TIME STEP  75 IN FLOW TIME STEP   1 STRESS PERIOD   1
     5 TOTAL ITERATIONS
  MAXIMUM CONCENTRATION CHANGES FOR EACH ITERATION:
  MAX. CHANGE LAYER,ROW,COL MAX. CHANGE LAYER,ROW,COL MAX. CHANGE LAYER,ROW,COL MAX. CHANGE LAYER,ROW,COL MAX. CHANGE LAYER,ROW,COL
 ------------------------------------------------------------------------------------------------------------------------------------
   0.1517     ( 16,  1, 90)  0.1194E-02 ( 16,  1, 90)  0.2756E-04 ( 17,  1, 84)  0.1155E-05 ( 16,  1, 84)  0.7157E-07 ( 10,  1, 70)
0WARNING: NUMERICAL OSCILLATION ENCOUNTERED
 ONE OR MORE CELL CONCENTRATIONS LESS THAN CRHOREF
 SMALLEST DENSITY =  0.100E+04
 AT CELL (I,J,K) = (   1,  68,   7)

 
 SOLVING FOR HEAD 


     2 CALLS TO PCG ROUTINE FOR TIME STEP   1 IN STRESS PERIOD    1
    10 TOTAL ITERATIONS

 MAXIMUM HEAD CHANGE FOR EACH ITERATION (1 INDICATES THE FIRST INNER ITERATION):

    HEAD CHANGE    HEAD CHANGE    HEAD CHANGE    HEAD CHANGE    HEAD CHANGE 
   LAYER,ROW,COL  LAYER,ROW,COL  LAYER,ROW,COL  LAYER,ROW,COL  LAYER,ROW,COL
 ---------------------------------------------------------------------------
  1 -0.1484E-01  0 -0.9969E-02  0  0.1565E-01  0 -0.1303E-01  0 -0.1686E-01
   ( 23,  1, 72)  (  9,  1, 12)  ( 11,  1, 65)  ( 11,  1, 64)  ( 11,  1, 70)
  0  0.1444E-01  0  0.2397E-02  0  0.1075E-02  0 -0.4712E-03  1  0.4013E-03
   ( 11,  1, 70)  ( 11,  1, 70)  ( 11,  1, 71)  ( 11,  1, 70)  ( 11,  1, 70)

 MAXIMUM RESIDUAL FOR EACH ITERATION (1 INDICATES THE FIRST INNER ITERATION):

    RESIDUAL       RESIDUAL       RESIDUAL       RESIDUAL       RESIDUAL    
   LAYER,ROW,COL  LAYER,ROW,COL  LAYER,ROW,COL  LAYER,ROW,COL  LAYER,ROW,COL
 ---------------------------------------------------------------------------
  1 -0.8924E+05  0 -0.8028E+05  0 -0.3938E+05  0 -0.2836E+05  0  -5878.    
   ( 16,  1, 88)  ( 16,  1, 88)  ( 16,  1, 88)  ( 16,  1, 88)  ( 16,  1, 89)
  0   1251.      0   1049.      0   832.0      0   583.4      1   471.0    
   ( 17,  1, 89)  ( 17,  1, 89)  ( 17,  1, 89)  ( 17,  1, 89)  ( 17,  1, 89)


 FLOW MODEL IS TRANSIENT
 FLOW MODEL CONTAINS CONSTANT-HEAD CELLS


 MAXIMUM STEPSIZE DURING WHICH ANY PARTICLE CANNOT MOVE MORE THAN ONE CELL
 =  43.04    (WHEN MIN. R.F.=1)  AT K=   2, I=   1, J=  71

 MAXIMUM STEPSIZE WHICH MEETS STABILITY CRITERION OF THE ADVECTION TERM
 (FOR PURE FINITE-DIFFERENCE OPTION, MIXELM=0) 
 =  26.05    (WHEN MIN. R.F.=1)  AT K=   2, I=   1, J=  71


 TOTAL NUMBER OF POINT SOURCES/SINKS PRESENT IN THE FLOW MODEL =    30

 MAXIMUM STEPSIZE WHICH MEETS STABILITY CRITERION OF THE SINK & SOURCE TERM
 =  275.2    (WHEN MIN. R.F.=1)  AT K=   3, I=   1, J=  73

 MAXIMUM STEPSIZE WHICH MEETS STABILITY CRITERION OF THE DISPERSION TERM
 =  8.008    (WHEN MIN. R.F.=1)  AT K=  16, I=   1, J=  85
     1 CALLS TO GCG PACKAGE FOR TRANSPORT TIME STEP  76 IN FLOW TIME STEP   1 STRESS PERIOD   1
     5 TOTAL ITERATIONS
0WARNING: NUMERICAL OSCILLATION ENCOUNTERED
 ONE OR MORE CELL CONCENTRATIONS LESS THAN CRHOREF
 SMALLEST DENSITY =  0.100E+04
 AT CELL (I,J,K) = (   1,  68,   7)

 
 SOLVING FOR HEAD 


     2 CALLS TO PCG ROUTINE FOR TIME STEP   1 IN STRESS PERIOD    1
    10 TOTAL ITERATIONS

 MAXIMUM HEAD CHANGE FOR EACH ITERATION (1 INDICATES THE FIRST INNER ITERATION):

    HEAD CHANGE    HEAD CHANGE    HEAD CHANGE    HEAD CHANGE    HEAD CHANGE 
   LAYER,ROW,COL  LAYER,ROW,COL  LAYER,ROW,COL  LAYER,ROW,COL  LAYER,ROW,COL
 ---------------------------------------------------------------------------
  1 -0.1467E-01  0 -0.9843E-02  0  0.1551E-01  0 -0.1298E-01  0 -0.1669E-01
   ( 23,  1, 71)  (  9,  1, 12)  ( 11,  1, 66)  ( 11,  1, 64)  ( 11,  1, 70)
  0  0.1427E-01  0  0.2387E-02  0  0.1160E-02  0  0.5056E-03  1  0.4048E-03
   ( 11,  1, 70)  ( 11,  1, 70)  ( 11,  1, 71)  ( 11,  1, 71)  ( 11,  1, 70)

 MAXIMUM RESIDUAL FOR EACH ITERATION (1 INDICATES THE FIRST INNER ITERATION):

    RESIDUAL       RESIDUAL       RESIDUAL       RESIDUAL       RESIDUAL    
   LAYER,ROW,COL  LAYER,ROW,COL  LAYER,ROW,COL  LAYER,ROW,COL  LAYER,ROW,COL
 ---------------------------------------------------------------------------
  1 -0.8494E+05  0 -0.7651E+05  0 -0.3846E+05  0 -0.2762E+05  0  -5863.    
   ( 16,  1, 88)  ( 16,  1, 88)  ( 16,  1, 88)  ( 16,  1, 88)  ( 16,  1, 89)
  0   1273.      0   1064.      0   842.5      0   582.9      1   470.4    
   ( 17,  1, 89)  ( 17,  1, 89)  ( 17,  1, 89)  ( 17,  1, 89)  ( 17,  1, 89)


 FLOW MODEL IS TRANSIENT
 FLOW MODEL CONTAINS CONSTANT-HEAD CELLS


 MAXIMUM STEPSIZE DURING WHICH ANY PARTICLE CANNOT MOVE MORE THAN ONE CELL
 =  43.09    (WHEN MIN. R.F.=1)  AT K=   2, I=   1, J=  71

 MAXIMUM STEPSIZE WHICH MEETS STABILITY CRITERION OF THE ADVECTION TERM
 (FOR PURE FINITE-DIFFERENCE OPTION, MIXELM=0) 
 =  26.07    (WHEN MIN. R.F.=1)  AT K=   2, I=   1, J=  71


 TOTAL NUMBER OF POINT SOURCES/SINKS PRESENT IN THE FLOW MODEL =    30

 MAXIMUM STEPSIZE WHICH MEETS STABILITY CRITERION OF THE SINK & SOURCE TERM
 =  175.5    (WHEN MIN. R.F.=1)  AT K=  17, I=   1, J=  91

 MAXIMUM STEPSIZE WHICH MEETS STABILITY CRITERION OF THE DISPERSION TERM
 =  8.051    (WHEN MIN. R.F.=1)  AT K=  16, I=   1, J=  84
     1 CALLS TO GCG PACKAGE FOR TRANSPORT TIME STEP  77 IN FLOW TIME STEP   1 STRESS PERIOD   1
     5 TOTAL ITERATIONS
0WARNING: NUMERICAL OSCILLATION ENCOUNTERED
 ONE OR MORE CELL CONCENTRATIONS LESS THAN CRHOREF
 SMALLEST DENSITY =  0.100E+04
 AT CELL (I,J,K) = (   1,  68,   7)

 
 SOLVING FOR HEAD 


     2 CALLS TO PCG ROUTINE FOR TIME STEP   1 IN STRESS PERIOD    1
    10 TOTAL ITERATIONS

 MAXIMUM HEAD CHANGE FOR EACH ITERATION (1 INDICATES THE FIRST INNER ITERATION):

    HEAD CHANGE    HEAD CHANGE    HEAD CHANGE    HEAD CHANGE    HEAD CHANGE 
   LAYER,ROW,COL  LAYER,ROW,COL  LAYER,ROW,COL  LAYER,ROW,COL  LAYER,ROW,COL
 ---------------------------------------------------------------------------
  1 -0.1460E-01  0 -0.9708E-02  0  0.1520E-01  0 -0.1285E-01  0 -0.1636E-01
   ( 23,  1, 72)  (  9,  1, 12)  ( 11,  1, 65)  ( 11,  1, 64)  ( 11,  1, 70)
  0  0.1406E-01  0  0.2319E-02  0  0.1043E-02  0 -0.4693E-03  1  0.4078E-03
   ( 11,  1, 70)  ( 11,  1, 70)  ( 11,  1, 71)  ( 11,  1, 70)  ( 11,  1, 70)

 MAXIMUM RESIDUAL FOR EACH ITERATION (1 INDICATES THE FIRST INNER ITERATION):

    RESIDUAL       RESIDUAL       RESIDUAL       RESIDUAL       RESIDUAL    
   LAYER,ROW,COL  LAYER,ROW,COL  LAYER,ROW,COL  LAYER,ROW,COL  LAYER,ROW,COL
 ---------------------------------------------------------------------------
  1 -0.8028E+05  0 -0.7245E+05  0 -0.3749E+05  0 -0.2696E+05  0  -6016.    
   ( 16,  1, 88)  ( 16,  1, 88)  ( 16,  1, 88)  ( 16,  1, 89)  ( 16,  1, 89)
  0   1280.      0   1067.      0   842.3      0   569.6      1   461.5    
   ( 17,  1, 89)  ( 17,  1, 89)  ( 17,  1, 89)  ( 17,  1, 89)  ( 17,  1, 89)


 FLOW MODEL IS TRANSIENT
 FLOW MODEL CONTAINS CONSTANT-HEAD CELLS


 MAXIMUM STEPSIZE DURING WHICH ANY PARTICLE CANNOT MOVE MORE THAN ONE CELL
 =  43.14    (WHEN MIN. R.F.=1)  AT K=   2, I=   1, J=  71

 MAXIMUM STEPSIZE WHICH MEETS STABILITY CRITERION OF THE ADVECTION TERM
 (FOR PURE FINITE-DIFFERENCE OPTION, MIXELM=0) 
 =  26.10    (WHEN MIN. R.F.=1)  AT K=   2, I=   1, J=  71


 TOTAL NUMBER OF POINT SOURCES/SINKS PRESENT IN THE FLOW MODEL =    30

 MAXIMUM STEPSIZE WHICH MEETS STABILITY CRITERION OF THE SINK & SOURCE TERM
 =  122.1    (WHEN MIN. R.F.=1)  AT K=  17, I=   1, J=  91

 MAXIMUM STEPSIZE WHICH MEETS STABILITY CRITERION OF THE DISPERSION TERM
 =  8.095    (WHEN MIN. R.F.=1)  AT K=  16, I=   1, J=  85
     1 CALLS TO GCG PACKAGE FOR TRANSPORT TIME STEP  78 IN FLOW TIME STEP   1 STRESS PERIOD   1
     4 TOTAL ITERATIONS
0WARNING: NUMERICAL OSCILLATION ENCOUNTERED
 ONE OR MORE CELL CONCENTRATIONS LESS THAN CRHOREF
 SMALLEST DENSITY =  0.100E+04
 AT CELL (I,J,K) = (   1,  68,   7)

 
 SOLVING FOR HEAD 


     2 CALLS TO PCG ROUTINE FOR TIME STEP   1 IN STRESS PERIOD    1
    10 TOTAL ITERATIONS

 MAXIMUM HEAD CHANGE FOR EACH ITERATION (1 INDICATES THE FIRST INNER ITERATION):

    HEAD CHANGE    HEAD CHANGE    HEAD CHANGE    HEAD CHANGE    HEAD CHANGE 
   LAYER,ROW,COL  LAYER,ROW,COL  LAYER,ROW,COL  LAYER,ROW,COL  LAYER,ROW,COL
 ---------------------------------------------------------------------------
  1 -0.1445E-01  0 -0.9598E-02  0  0.1506E-01  0 -0.1287E-01  0 -0.1619E-01
   ( 23,  1, 73)  (  9,  1, 12)  ( 11,  1, 66)  ( 11,  1, 64)  ( 11,  1, 70)
  0  0.1391E-01  0  0.2304E-02  0  0.1152E-02  0  0.4995E-03  1  0.4199E-03
   ( 11,  1, 70)  ( 11,  1, 70)  ( 11,  1, 71)  ( 11,  1, 71)  ( 11,  1, 70)

 MAXIMUM RESIDUAL FOR EACH ITERATION (1 INDICATES THE FIRST INNER ITERATION):

    RESIDUAL       RESIDUAL       RESIDUAL       RESIDUAL       RESIDUAL    
   LAYER,ROW,COL  LAYER,ROW,COL  LAYER,ROW,COL  LAYER,ROW,COL  LAYER,ROW,COL
 ---------------------------------------------------------------------------
  1 -0.7907E+05  0 -0.7150E+05  0 -0.3812E+05  0 -0.2765E+05  0  -5999.    
   ( 16,  1, 89)  ( 16,  1, 89)  ( 16,  1, 89)  ( 16,  1, 89)  ( 16,  1, 89)
  0   1264.      0   1053.      0   825.6      0   546.1      1   443.1    
   ( 17,  1, 89)  ( 17,  1, 89)  ( 17,  1, 89)  ( 17,  1, 89)  ( 17,  1, 89)


 FLOW MODEL IS TRANSIENT
 FLOW MODEL CONTAINS CONSTANT-HEAD CELLS


 MAXIMUM STEPSIZE DURING WHICH ANY PARTICLE CANNOT MOVE MORE THAN ONE CELL
 =  43.20    (WHEN MIN. R.F.=1)  AT K=   2, I=   1, J=  71

 MAXIMUM STEPSIZE WHICH MEETS STABILITY CRITERION OF THE ADVECTION TERM
 (FOR PURE FINITE-DIFFERENCE OPTION, MIXELM=0) 
 =  26.12    (WHEN MIN. R.F.=1)  AT K=   2, I=   1, J=  71


 TOTAL NUMBER OF POINT SOURCES/SINKS PRESENT IN THE FLOW MODEL =    30

 MAXIMUM STEPSIZE WHICH MEETS STABILITY CRITERION OF THE SINK & SOURCE TERM
 =  90.89    (WHEN MIN. R.F.=1)  AT K=  17, I=   1, J=  91

 MAXIMUM STEPSIZE WHICH MEETS STABILITY CRITERION OF THE DISPERSION TERM
 =  8.142    (WHEN MIN. R.F.=1)  AT K=  16, I=   1, J=  85
     1 CALLS TO GCG PACKAGE FOR TRANSPORT TIME STEP  79 IN FLOW TIME STEP   1 STRESS PERIOD   1
     4 TOTAL ITERATIONS
0WARNING: NUMERICAL OSCILLATION ENCOUNTERED
 ONE OR MORE CELL CONCENTRATIONS LESS THAN CRHOREF
 SMALLEST DENSITY =  0.100E+04
 AT CELL (I,J,K) = (   1,  68,   7)

 
 SOLVING FOR HEAD 


     2 CALLS TO PCG ROUTINE FOR TIME STEP   1 IN STRESS PERIOD    1
    10 TOTAL ITERATIONS

 MAXIMUM HEAD CHANGE FOR EACH ITERATION (1 INDICATES THE FIRST INNER ITERATION):

    HEAD CHANGE    HEAD CHANGE    HEAD CHANGE    HEAD CHANGE    HEAD CHANGE 
   LAYER,ROW,COL  LAYER,ROW,COL  LAYER,ROW,COL  LAYER,ROW,COL  LAYER,ROW,COL
 ---------------------------------------------------------------------------
  1 -0.1440E-01  0 -0.9473E-02  0  0.1477E-01  0 -0.1278E-01  0 -0.1586E-01
   ( 23,  1, 72)  (  9,  1, 12)  ( 11,  1, 65)  ( 11,  1, 64)  ( 11,  1, 70)
  0  0.1369E-01  0  0.2230E-02  0  0.1036E-02  0 -0.4731E-03  1  0.4238E-03
   ( 11,  1, 70)  ( 11,  1, 70)  ( 11,  1, 71)  ( 11,  1, 70)  ( 11,  1, 70)

 MAXIMUM RESIDUAL FOR EACH ITERATION (1 INDICATES THE FIRST INNER ITERATION):

    RESIDUAL       RESIDUAL       RESIDUAL       RESIDUAL       RESIDUAL    
   LAYER,ROW,COL  LAYER,ROW,COL  LAYER,ROW,COL  LAYER,ROW,COL  LAYER,ROW,COL
 ---------------------------------------------------------------------------
  1 -0.7912E+05  0 -0.7171E+05  0 -0.3907E+05  0 -0.2825E+05  0  -6050.    
   ( 16,  1, 89)  ( 16,  1, 89)  ( 16,  1, 89)  ( 16,  1, 89)  ( 16,  1, 89)
  0   1234.      0   1029.      0   802.0      0   517.3      1   421.8    
   ( 17,  1, 89)  ( 17,  1, 89)  ( 17,  1, 89)  ( 17,  1, 89)  ( 17,  1, 89)


 FLOW MODEL IS TRANSIENT
 FLOW MODEL CONTAINS CONSTANT-HEAD CELLS


 MAXIMUM STEPSIZE DURING WHICH ANY PARTICLE CANNOT MOVE MORE THAN ONE CELL
 =  43.25    (WHEN MIN. R.F.=1)  AT K=   2, I=   1, J=  71

 MAXIMUM STEPSIZE WHICH MEETS STABILITY CRITERION OF THE ADVECTION TERM
 (FOR PURE FINITE-DIFFERENCE OPTION, MIXELM=0) 
 =  26.14    (WHEN MIN. R.F.=1)  AT K=   2, I=   1, J=  71


 TOTAL NUMBER OF POINT SOURCES/SINKS PRESENT IN THE FLOW MODEL =    30

 MAXIMUM STEPSIZE WHICH MEETS STABILITY CRITERION OF THE SINK & SOURCE TERM
 =  71.04    (WHEN MIN. R.F.=1)  AT K=  17, I=   1, J=  91

 MAXIMUM STEPSIZE WHICH MEETS STABILITY CRITERION OF THE DISPERSION TERM
 =  8.182    (WHEN MIN. R.F.=1)  AT K=  16, I=   1, J=  85
     1 CALLS TO GCG PACKAGE FOR TRANSPORT TIME STEP  80 IN FLOW TIME STEP   1 STRESS PERIOD   1
     4 TOTAL ITERATIONS
  MAXIMUM CONCENTRATION CHANGES FOR EACH ITERATION:
  MAX. CHANGE LAYER,ROW,COL MAX. CHANGE LAYER,ROW,COL MAX. CHANGE LAYER,ROW,COL MAX. CHANGE LAYER,ROW,COL MAX. CHANGE LAYER,ROW,COL
 ------------------------------------------------------------------------------------------------------------------------------------
   0.2708     ( 16,  1, 90)  0.7537E-03 ( 23,  1, 75)  0.2343E-04 ( 16,  1, 89)  0.9550E-06 ( 16,  1, 89)



 >>>>>>>>>>>>>>>>>>>>>>>>>>>>>>>>>>>>>>>>>>>>>>>>>>>>>>>FOR COMPONENT NO. 01<<<<<<<<<<<<<<<<<<<<<<<<<<<<<<<<<<<<<<<<<<<<<<<<<<<<<<<


                                            -------------------------------------------
                                                      TRANSPORT STEP NO.   80
                                            -------------------------------------------

 TOTAL ELAPSED TIME SINCE BEGINNING OF SIMULATION =   729.1500    D   
 .....................................................................

                     CUMMULATIVE MASS BUDGETS AT END OF TRANSPORT STEP   80, TIME STEP    1, STRESS PERIOD    1
                     ------------------------------------------------------------------------------------------

                                                             IN                           OUT
                                                      ----------------             ----------------
                               CONSTANT CONCENTRATION:    0.000000                    0.000000    
                                        CONSTANT HEAD:    2441326.                   -5191659.    
                                             RECHARGE:    0.000000                    0.000000    
                                MASS STORAGE (SOLUTE):   0.2103669E+08              -0.1828633E+08
                            ---------------------------------------------------------------------------
                                              [TOTAL]:   0.2347913E+08 KG           -0.2347913E+08 KG  

                                                          NET (IN - OUT):  -0.2856430    
                                                   DISCREPANCY (PERCENT):  -0.1216583E-05
0WARNING: NUMERICAL OSCILLATION ENCOUNTERED
 ONE OR MORE CELL CONCENTRATIONS LESS THAN CRHOREF
 SMALLEST DENSITY =  0.100E+04
 AT CELL (I,J,K) = (   1,  68,   7)

 
 SOLVING FOR HEAD 


     2 CALLS TO PCG ROUTINE FOR TIME STEP   1 IN STRESS PERIOD    1
    10 TOTAL ITERATIONS

 MAXIMUM HEAD CHANGE FOR EACH ITERATION (1 INDICATES THE FIRST INNER ITERATION):

    HEAD CHANGE    HEAD CHANGE    HEAD CHANGE    HEAD CHANGE    HEAD CHANGE 
   LAYER,ROW,COL  LAYER,ROW,COL  LAYER,ROW,COL  LAYER,ROW,COL  LAYER,ROW,COL
 ---------------------------------------------------------------------------
  1 -0.1427E-01  0 -0.9364E-02  0  0.1462E-01  0 -0.1282E-01  0 -0.1568E-01
   ( 23,  1, 73)  (  9,  1, 12)  ( 11,  1, 66)  ( 11,  1, 64)  ( 11,  1, 70)
  0  0.1358E-01  0  0.2208E-02  0  0.1145E-02  0  0.4842E-03  1  0.4324E-03
   ( 11,  1, 70)  ( 11,  1, 70)  ( 11,  1, 71)  ( 11,  1, 71)  ( 11,  1, 70)

 MAXIMUM RESIDUAL FOR EACH ITERATION (1 INDICATES THE FIRST INNER ITERATION):

    RESIDUAL       RESIDUAL       RESIDUAL       RESIDUAL       RESIDUAL    
   LAYER,ROW,COL  LAYER,ROW,COL  LAYER,ROW,COL  LAYER,ROW,COL  LAYER,ROW,COL
 ---------------------------------------------------------------------------
  1 -0.7747E+05  0 -0.7036E+05  0 -0.3930E+05  0 -0.2821E+05  0  -5910.    
   ( 16,  1, 89)  ( 16,  1, 89)  ( 16,  1, 89)  ( 16,  1, 89)  ( 16,  1, 89)
  0   1199.      0   999.6      0   772.9      0   488.1      1   399.0    
   ( 17,  1, 89)  ( 17,  1, 89)  ( 17,  1, 89)  ( 17,  1, 89)  ( 17,  1, 89)


 FLOW MODEL IS TRANSIENT
 FLOW MODEL CONTAINS CONSTANT-HEAD CELLS


 MAXIMUM STEPSIZE DURING WHICH ANY PARTICLE CANNOT MOVE MORE THAN ONE CELL
 =  43.30    (WHEN MIN. R.F.=1)  AT K=   2, I=   1, J=  71

 MAXIMUM STEPSIZE WHICH MEETS STABILITY CRITERION OF THE ADVECTION TERM
 (FOR PURE FINITE-DIFFERENCE OPTION, MIXELM=0) 
 =  26.17    (WHEN MIN. R.F.=1)  AT K=   2, I=   1, J=  71


 TOTAL NUMBER OF POINT SOURCES/SINKS PRESENT IN THE FLOW MODEL =    30

 MAXIMUM STEPSIZE WHICH MEETS STABILITY CRITERION OF THE SINK & SOURCE TERM
 =  57.73    (WHEN MIN. R.F.=1)  AT K=  17, I=   1, J=  91

 MAXIMUM STEPSIZE WHICH MEETS STABILITY CRITERION OF THE DISPERSION TERM
 =  8.228    (WHEN MIN. R.F.=1)  AT K=  16, I=   1, J=  85
     1 CALLS TO GCG PACKAGE FOR TRANSPORT TIME STEP  81 IN FLOW TIME STEP   1 STRESS PERIOD   1
     4 TOTAL ITERATIONS
0WARNING: NUMERICAL OSCILLATION ENCOUNTERED
 ONE OR MORE CELL CONCENTRATIONS LESS THAN CRHOREF
 SMALLEST DENSITY =  0.100E+04
 AT CELL (I,J,K) = (   1,  68,   7)

 
 SOLVING FOR HEAD 


     2 CALLS TO PCG ROUTINE FOR TIME STEP   1 IN STRESS PERIOD    1
    10 TOTAL ITERATIONS

 MAXIMUM HEAD CHANGE FOR EACH ITERATION (1 INDICATES THE FIRST INNER ITERATION):

    HEAD CHANGE    HEAD CHANGE    HEAD CHANGE    HEAD CHANGE    HEAD CHANGE 
   LAYER,ROW,COL  LAYER,ROW,COL  LAYER,ROW,COL  LAYER,ROW,COL  LAYER,ROW,COL
 ---------------------------------------------------------------------------
  1 -0.1413E-01  0 -0.9220E-02  0  0.1431E-01  0 -0.1270E-01  0 -0.1532E-01
   ( 23,  1, 72)  (  9,  1, 12)  ( 11,  1, 65)  ( 11,  1, 64)  ( 11,  1, 70)
  0  0.1335E-01  0  0.2123E-02  0  0.1017E-02  0 -0.4637E-03  1  0.4297E-03
   ( 11,  1, 70)  ( 11,  1, 70)  ( 11,  1, 71)  ( 11,  1, 70)  ( 11,  1, 70)

 MAXIMUM RESIDUAL FOR EACH ITERATION (1 INDICATES THE FIRST INNER ITERATION):

    RESIDUAL       RESIDUAL       RESIDUAL       RESIDUAL       RESIDUAL    
   LAYER,ROW,COL  LAYER,ROW,COL  LAYER,ROW,COL  LAYER,ROW,COL  LAYER,ROW,COL
 ---------------------------------------------------------------------------
  1 -0.7567E+05  0 -0.6891E+05  0 -0.3949E+05  0 -0.2828E+05  0  -5893.    
   ( 16,  1, 89)  ( 16,  1, 89)  ( 16,  1, 89)  ( 16,  1, 89)  ( 16,  1, 89)
  0   1158.      0   965.9      0   742.6      0   459.7      1   377.8    
   ( 17,  1, 89)  ( 17,  1, 89)  ( 17,  1, 89)  ( 17,  1, 89)  ( 17,  1, 89)


 FLOW MODEL IS TRANSIENT
 FLOW MODEL CONTAINS CONSTANT-HEAD CELLS


 MAXIMUM STEPSIZE DURING WHICH ANY PARTICLE CANNOT MOVE MORE THAN ONE CELL
 =  43.35    (WHEN MIN. R.F.=1)  AT K=   2, I=   1, J=  71

 MAXIMUM STEPSIZE WHICH MEETS STABILITY CRITERION OF THE ADVECTION TERM
 (FOR PURE FINITE-DIFFERENCE OPTION, MIXELM=0) 
 =  26.19    (WHEN MIN. R.F.=1)  AT K=   2, I=   1, J=  71


 TOTAL NUMBER OF POINT SOURCES/SINKS PRESENT IN THE FLOW MODEL =    30

 MAXIMUM STEPSIZE WHICH MEETS STABILITY CRITERION OF THE SINK & SOURCE TERM
 =  48.44    (WHEN MIN. R.F.=1)  AT K=  17, I=   1, J=  91

 MAXIMUM STEPSIZE WHICH MEETS STABILITY CRITERION OF THE DISPERSION TERM
 =  8.256    (WHEN MIN. R.F.=1)  AT K=  16, I=   1, J=  75
     1 CALLS TO GCG PACKAGE FOR TRANSPORT TIME STEP  82 IN FLOW TIME STEP   1 STRESS PERIOD   1
     4 TOTAL ITERATIONS
0WARNING: NUMERICAL OSCILLATION ENCOUNTERED
 ONE OR MORE CELL CONCENTRATIONS LESS THAN CRHOREF
 SMALLEST DENSITY =  0.100E+04
 AT CELL (I,J,K) = (   1,  68,   7)

 
 SOLVING FOR HEAD 


     2 CALLS TO PCG ROUTINE FOR TIME STEP   1 IN STRESS PERIOD    1
    10 TOTAL ITERATIONS

 MAXIMUM HEAD CHANGE FOR EACH ITERATION (1 INDICATES THE FIRST INNER ITERATION):

    HEAD CHANGE    HEAD CHANGE    HEAD CHANGE    HEAD CHANGE    HEAD CHANGE 
   LAYER,ROW,COL  LAYER,ROW,COL  LAYER,ROW,COL  LAYER,ROW,COL  LAYER,ROW,COL
 ---------------------------------------------------------------------------
  1 -0.1400E-01  0 -0.9099E-02  0  0.1414E-01  0 -0.1274E-01  0 -0.1513E-01
   ( 23,  1, 73)  (  9,  1, 12)  ( 11,  1, 66)  ( 11,  1, 64)  ( 11,  1, 70)
  0  0.1324E-01  0  0.2096E-02  0  0.1121E-02  0  0.4636E-03  1  0.4301E-03
   ( 11,  1, 70)  ( 11,  1, 70)  ( 11,  1, 71)  ( 11,  1, 71)  ( 11,  1, 70)

 MAXIMUM RESIDUAL FOR EACH ITERATION (1 INDICATES THE FIRST INNER ITERATION):

    RESIDUAL       RESIDUAL       RESIDUAL       RESIDUAL       RESIDUAL    
   LAYER,ROW,COL  LAYER,ROW,COL  LAYER,ROW,COL  LAYER,ROW,COL  LAYER,ROW,COL
 ---------------------------------------------------------------------------
  1 -0.7350E+05  0 -0.6620E+05  0 -0.3893E+05  0 -0.2769E+05  0  -5687.    
   ( 19,  1, 75)  ( 16,  1, 89)  ( 16,  1, 89)  ( 16,  1, 89)  ( 16,  1, 89)
  0   1116.      0   929.4      0   710.4      0   434.9      1   358.5    
   ( 17,  1, 89)  ( 17,  1, 89)  ( 17,  1, 89)  ( 17,  1, 89)  ( 17,  1, 89)


 FLOW MODEL IS TRANSIENT
 FLOW MODEL CONTAINS CONSTANT-HEAD CELLS


 MAXIMUM STEPSIZE DURING WHICH ANY PARTICLE CANNOT MOVE MORE THAN ONE CELL
 =  43.40    (WHEN MIN. R.F.=1)  AT K=   2, I=   1, J=  71

 MAXIMUM STEPSIZE WHICH MEETS STABILITY CRITERION OF THE ADVECTION TERM
 (FOR PURE FINITE-DIFFERENCE OPTION, MIXELM=0) 
 =  25.03    (WHEN MIN. R.F.=1)  AT K=  16, I=   1, J=  90


 TOTAL NUMBER OF POINT SOURCES/SINKS PRESENT IN THE FLOW MODEL =    30

 MAXIMUM STEPSIZE WHICH MEETS STABILITY CRITERION OF THE SINK & SOURCE TERM
 =  41.78    (WHEN MIN. R.F.=1)  AT K=  17, I=   1, J=  91

 MAXIMUM STEPSIZE WHICH MEETS STABILITY CRITERION OF THE DISPERSION TERM
 =  8.308    (WHEN MIN. R.F.=1)  AT K=  16, I=   1, J=  74
     1 CALLS TO GCG PACKAGE FOR TRANSPORT TIME STEP  83 IN FLOW TIME STEP   1 STRESS PERIOD   1
     4 TOTAL ITERATIONS
0WARNING: NUMERICAL OSCILLATION ENCOUNTERED
 ONE OR MORE CELL CONCENTRATIONS LESS THAN CRHOREF
 SMALLEST DENSITY =  0.100E+04
 AT CELL (I,J,K) = (   1,  68,   7)

 
 SOLVING FOR HEAD 


     2 CALLS TO PCG ROUTINE FOR TIME STEP   1 IN STRESS PERIOD    1
     9 TOTAL ITERATIONS

 MAXIMUM HEAD CHANGE FOR EACH ITERATION (1 INDICATES THE FIRST INNER ITERATION):

    HEAD CHANGE    HEAD CHANGE    HEAD CHANGE    HEAD CHANGE    HEAD CHANGE 
   LAYER,ROW,COL  LAYER,ROW,COL  LAYER,ROW,COL  LAYER,ROW,COL  LAYER,ROW,COL
 ---------------------------------------------------------------------------
  1 -0.1376E-01  0 -0.8970E-02  0  0.1348E-01  0 -0.1246E-01  0 -0.1436E-01
   ( 23,  1, 72)  (  9,  1, 12)  ( 11,  1, 65)  ( 11,  1, 64)  ( 11,  1, 70)
  0  0.1276E-01  0  0.1869E-02  0  0.9633E-03  1 -0.3075E-03
   ( 11,  1, 70)  ( 11,  1, 70)  ( 11,  1, 71)  ( 11,  1, 63)

 MAXIMUM RESIDUAL FOR EACH ITERATION (1 INDICATES THE FIRST INNER ITERATION):

    RESIDUAL       RESIDUAL       RESIDUAL       RESIDUAL       RESIDUAL    
   LAYER,ROW,COL  LAYER,ROW,COL  LAYER,ROW,COL  LAYER,ROW,COL  LAYER,ROW,COL
 ---------------------------------------------------------------------------
  1 -0.7346E+05  0 -0.6556E+05  0 -0.3844E+05  0 -0.2707E+05  0  -5452.    
   ( 19,  1, 74)  ( 19,  1, 74)  ( 16,  1, 89)  ( 16,  1, 89)  ( 16,  1, 89)
  0   1052.      0   879.4      0   669.3      1   552.8    
   ( 17,  1, 89)  ( 17,  1, 89)  ( 17,  1, 89)  ( 17,  1, 89)


 FLOW MODEL IS TRANSIENT
 FLOW MODEL CONTAINS CONSTANT-HEAD CELLS


 MAXIMUM STEPSIZE DURING WHICH ANY PARTICLE CANNOT MOVE MORE THAN ONE CELL
 =  43.45    (WHEN MIN. R.F.=1)  AT K=   2, I=   1, J=  71

 MAXIMUM STEPSIZE WHICH MEETS STABILITY CRITERION OF THE ADVECTION TERM
 (FOR PURE FINITE-DIFFERENCE OPTION, MIXELM=0) 
 =  22.97    (WHEN MIN. R.F.=1)  AT K=  16, I=   1, J=  90


 TOTAL NUMBER OF POINT SOURCES/SINKS PRESENT IN THE FLOW MODEL =    30

 MAXIMUM STEPSIZE WHICH MEETS STABILITY CRITERION OF THE SINK & SOURCE TERM
 =  37.04    (WHEN MIN. R.F.=1)  AT K=  17, I=   1, J=  91

 MAXIMUM STEPSIZE WHICH MEETS STABILITY CRITERION OF THE DISPERSION TERM
 =  8.324    (WHEN MIN. R.F.=1)  AT K=  16, I=   1, J=  75
     1 CALLS TO GCG PACKAGE FOR TRANSPORT TIME STEP  84 IN FLOW TIME STEP   1 STRESS PERIOD   1
     4 TOTAL ITERATIONS
0WARNING: NUMERICAL OSCILLATION ENCOUNTERED
 ONE OR MORE CELL CONCENTRATIONS LESS THAN CRHOREF
 SMALLEST DENSITY =  0.100E+04
 AT CELL (I,J,K) = (   1,  68,   7)

 
 SOLVING FOR HEAD 


     2 CALLS TO PCG ROUTINE FOR TIME STEP   1 IN STRESS PERIOD    1
     9 TOTAL ITERATIONS

 MAXIMUM HEAD CHANGE FOR EACH ITERATION (1 INDICATES THE FIRST INNER ITERATION):

    HEAD CHANGE    HEAD CHANGE    HEAD CHANGE    HEAD CHANGE    HEAD CHANGE 
   LAYER,ROW,COL  LAYER,ROW,COL  LAYER,ROW,COL  LAYER,ROW,COL  LAYER,ROW,COL
 ---------------------------------------------------------------------------
  1 -0.1311E-01  0 -0.8701E-02  0  0.1283E-01  0 -0.1097E-01  0 -0.1312E-01
   ( 23,  1, 73)  (  9,  1, 12)  ( 11,  1, 66)  ( 11,  1, 65)  ( 11,  1, 70)
  0  0.1137E-01  0  0.2002E-02  0  0.9978E-03  1 -0.2692E-03
   ( 11,  1, 67)  ( 11,  1, 70)  ( 11,  1, 71)  ( 11,  1, 63)

 MAXIMUM RESIDUAL FOR EACH ITERATION (1 INDICATES THE FIRST INNER ITERATION):

    RESIDUAL       RESIDUAL       RESIDUAL       RESIDUAL       RESIDUAL    
   LAYER,ROW,COL  LAYER,ROW,COL  LAYER,ROW,COL  LAYER,ROW,COL  LAYER,ROW,COL
 ---------------------------------------------------------------------------
  1 -0.1211E+06  0 -0.1100E+06  0 -0.6174E+05  0 -0.4207E+05  0  -7843.    
   ( 16,  1, 89)  ( 16,  1, 89)  ( 16,  1, 89)  ( 16,  1, 89)  ( 16,  1, 89)
  0   1501.      0   1184.      0   945.7      1   786.5    
   ( 17,  1, 89)  ( 17,  1, 89)  ( 17,  1, 89)  ( 17,  1, 89)


 FLOW MODEL IS TRANSIENT
 FLOW MODEL CONTAINS CONSTANT-HEAD CELLS


 MAXIMUM STEPSIZE DURING WHICH ANY PARTICLE CANNOT MOVE MORE THAN ONE CELL
 =  43.31    (WHEN MIN. R.F.=1)  AT K=  18, I=   1, J=  91

 MAXIMUM STEPSIZE WHICH MEETS STABILITY CRITERION OF THE ADVECTION TERM
 (FOR PURE FINITE-DIFFERENCE OPTION, MIXELM=0) 
 =  22.20    (WHEN MIN. R.F.=1)  AT K=  16, I=   1, J=  90


 TOTAL NUMBER OF POINT SOURCES/SINKS PRESENT IN THE FLOW MODEL =    30

 MAXIMUM STEPSIZE WHICH MEETS STABILITY CRITERION OF THE SINK & SOURCE TERM
 =  35.19    (WHEN MIN. R.F.=1)  AT K=  17, I=   1, J=  91

 MAXIMUM STEPSIZE WHICH MEETS STABILITY CRITERION OF THE DISPERSION TERM
 =  8.267    (WHEN MIN. R.F.=1)  AT K=  16, I=   1, J=  89
     1 CALLS TO GCG PACKAGE FOR TRANSPORT TIME STEP  85 IN FLOW TIME STEP   1 STRESS PERIOD   1
     4 TOTAL ITERATIONS
  MAXIMUM CONCENTRATION CHANGES FOR EACH ITERATION:
  MAX. CHANGE LAYER,ROW,COL MAX. CHANGE LAYER,ROW,COL MAX. CHANGE LAYER,ROW,COL MAX. CHANGE LAYER,ROW,COL MAX. CHANGE LAYER,ROW,COL
 ------------------------------------------------------------------------------------------------------------------------------------
   0.3409     ( 16,  1, 90)  0.8736E-03 ( 17,  1, 89)  0.4014E-04 ( 16,  1, 89)  0.3773E-06 ( 17,  1, 89)
0WARNING: NUMERICAL OSCILLATION ENCOUNTERED
 ONE OR MORE CELL CONCENTRATIONS LESS THAN CRHOREF
 SMALLEST DENSITY =  0.100E+04
 AT CELL (I,J,K) = (   1,  68,   7)

 
 SOLVING FOR HEAD 


     2 CALLS TO PCG ROUTINE FOR TIME STEP   1 IN STRESS PERIOD    1
     9 TOTAL ITERATIONS

 MAXIMUM HEAD CHANGE FOR EACH ITERATION (1 INDICATES THE FIRST INNER ITERATION):

    HEAD CHANGE    HEAD CHANGE    HEAD CHANGE    HEAD CHANGE    HEAD CHANGE 
   LAYER,ROW,COL  LAYER,ROW,COL  LAYER,ROW,COL  LAYER,ROW,COL  LAYER,ROW,COL
 ---------------------------------------------------------------------------
  1 -0.1163E-01  0 -0.7800E-02  0  0.1134E-01  0 -0.9752E-02  0 -0.1151E-01
   ( 23,  1, 72)  (  9,  1, 12)  ( 11,  1, 67)  ( 11,  1, 65)  ( 11,  1, 70)
  0  0.9977E-02  0  0.1679E-02  0  0.8286E-03  1 -0.2414E-03
   ( 11,  1, 70)  ( 11,  1, 70)  ( 11,  1, 71)  ( 11,  1, 63)

 MAXIMUM RESIDUAL FOR EACH ITERATION (1 INDICATES THE FIRST INNER ITERATION):

    RESIDUAL       RESIDUAL       RESIDUAL       RESIDUAL       RESIDUAL    
   LAYER,ROW,COL  LAYER,ROW,COL  LAYER,ROW,COL  LAYER,ROW,COL  LAYER,ROW,COL
 ---------------------------------------------------------------------------
  1 -0.1166E+06  0 -0.1053E+06  0 -0.5581E+05  0 -0.3784E+05  0  -7154.    
   ( 16,  1, 89)  ( 16,  1, 89)  ( 16,  1, 89)  ( 16,  1, 89)  ( 16,  1, 89)
  0   1238.      0   979.5      0   780.4      1   646.8    
   ( 17,  1, 89)  ( 17,  1, 89)  ( 17,  1, 89)  ( 17,  1, 89)


 FLOW MODEL IS TRANSIENT
 FLOW MODEL CONTAINS CONSTANT-HEAD CELLS


 MAXIMUM STEPSIZE DURING WHICH ANY PARTICLE CANNOT MOVE MORE THAN ONE CELL
 =  40.83    (WHEN MIN. R.F.=1)  AT K=  18, I=   1, J=  91

 MAXIMUM STEPSIZE WHICH MEETS STABILITY CRITERION OF THE ADVECTION TERM
 (FOR PURE FINITE-DIFFERENCE OPTION, MIXELM=0) 
 =  21.39    (WHEN MIN. R.F.=1)  AT K=  16, I=   1, J=  90


 TOTAL NUMBER OF POINT SOURCES/SINKS PRESENT IN THE FLOW MODEL =    30

 MAXIMUM STEPSIZE WHICH MEETS STABILITY CRITERION OF THE SINK & SOURCE TERM
 =  33.40    (WHEN MIN. R.F.=1)  AT K=  17, I=   1, J=  91

 MAXIMUM STEPSIZE WHICH MEETS STABILITY CRITERION OF THE DISPERSION TERM
 =  8.094    (WHEN MIN. R.F.=1)  AT K=  16, I=   1, J=  89
     1 CALLS TO GCG PACKAGE FOR TRANSPORT TIME STEP  86 IN FLOW TIME STEP   1 STRESS PERIOD   1
     4 TOTAL ITERATIONS
0WARNING: NUMERICAL OSCILLATION ENCOUNTERED
 ONE OR MORE CELL CONCENTRATIONS LESS THAN CRHOREF
 SMALLEST DENSITY =  0.100E+04
 AT CELL (I,J,K) = (   1,  68,   7)

 
 SOLVING FOR HEAD 


     2 CALLS TO PCG ROUTINE FOR TIME STEP   1 IN STRESS PERIOD    1
     9 TOTAL ITERATIONS

 MAXIMUM HEAD CHANGE FOR EACH ITERATION (1 INDICATES THE FIRST INNER ITERATION):

    HEAD CHANGE    HEAD CHANGE    HEAD CHANGE    HEAD CHANGE    HEAD CHANGE 
   LAYER,ROW,COL  LAYER,ROW,COL  LAYER,ROW,COL  LAYER,ROW,COL  LAYER,ROW,COL
 ---------------------------------------------------------------------------
  1 -0.1052E-01  0 -0.7226E-02  0  0.1059E-01  0 -0.8365E-02  0 -0.1076E-01
   ( 23,  1, 73)  (  9,  1, 12)  ( 11,  1, 66)  ( 11,  1, 65)  ( 11,  1, 70)
  0  0.8930E-02  0  0.1528E-02  0  0.8199E-03  1 -0.2217E-03
   ( 11,  1, 70)  ( 11,  1, 70)  ( 11,  1, 71)  ( 11,  1, 63)

 MAXIMUM RESIDUAL FOR EACH ITERATION (1 INDICATES THE FIRST INNER ITERATION):

    RESIDUAL       RESIDUAL       RESIDUAL       RESIDUAL       RESIDUAL    
   LAYER,ROW,COL  LAYER,ROW,COL  LAYER,ROW,COL  LAYER,ROW,COL  LAYER,ROW,COL
 ---------------------------------------------------------------------------
  1 -0.1193E+06  0 -0.1059E+06  0 -0.4359E+05  0 -0.3020E+05  0  -6264.    
   ( 16,  1, 89)  ( 16,  1, 89)  ( 16,  1, 89)  ( 16,  1, 89)  ( 16,  1, 89)
  0   1095.      0   861.4      0   688.0      1   567.0    
   ( 17,  1, 89)  ( 17,  1, 89)  ( 17,  1, 89)  ( 17,  1, 89)


 FLOW MODEL IS TRANSIENT
 FLOW MODEL CONTAINS CONSTANT-HEAD CELLS


 MAXIMUM STEPSIZE DURING WHICH ANY PARTICLE CANNOT MOVE MORE THAN ONE CELL
 =  38.63    (WHEN MIN. R.F.=1)  AT K=  18, I=   1, J=  91

 MAXIMUM STEPSIZE WHICH MEETS STABILITY CRITERION OF THE ADVECTION TERM
 (FOR PURE FINITE-DIFFERENCE OPTION, MIXELM=0) 
 =  20.59    (WHEN MIN. R.F.=1)  AT K=  16, I=   1, J=  90


 TOTAL NUMBER OF POINT SOURCES/SINKS PRESENT IN THE FLOW MODEL =    30

 MAXIMUM STEPSIZE WHICH MEETS STABILITY CRITERION OF THE SINK & SOURCE TERM
 =  31.73    (WHEN MIN. R.F.=1)  AT K=  17, I=   1, J=  91

 MAXIMUM STEPSIZE WHICH MEETS STABILITY CRITERION OF THE DISPERSION TERM
 =  7.936    (WHEN MIN. R.F.=1)  AT K=  16, I=   1, J=  89
     1 CALLS TO GCG PACKAGE FOR TRANSPORT TIME STEP  87 IN FLOW TIME STEP   1 STRESS PERIOD   1
     4 TOTAL ITERATIONS
0WARNING: NUMERICAL OSCILLATION ENCOUNTERED
 ONE OR MORE CELL CONCENTRATIONS LESS THAN CRHOREF
 SMALLEST DENSITY =  0.100E+04
 AT CELL (I,J,K) = (   1,  68,   7)

 
 SOLVING FOR HEAD 


     2 CALLS TO PCG ROUTINE FOR TIME STEP   1 IN STRESS PERIOD    1
     9 TOTAL ITERATIONS

 MAXIMUM HEAD CHANGE FOR EACH ITERATION (1 INDICATES THE FIRST INNER ITERATION):

    HEAD CHANGE    HEAD CHANGE    HEAD CHANGE    HEAD CHANGE    HEAD CHANGE 
   LAYER,ROW,COL  LAYER,ROW,COL  LAYER,ROW,COL  LAYER,ROW,COL  LAYER,ROW,COL
 ---------------------------------------------------------------------------
  1 -0.9308E-02  0 -0.6577E-02  0  0.9783E-02  0 -0.6780E-02  0 -0.9714E-02
   ( 23,  1, 72)  (  9,  1, 12)  ( 11,  1, 66)  ( 11,  1, 65)  ( 11,  1, 70)
  0  0.7496E-02  0  0.1376E-02  0  0.7128E-03  1 -0.1979E-03
   ( 11,  1, 70)  ( 11,  1, 70)  ( 11,  1, 71)  ( 11,  1, 70)

 MAXIMUM RESIDUAL FOR EACH ITERATION (1 INDICATES THE FIRST INNER ITERATION):

    RESIDUAL       RESIDUAL       RESIDUAL       RESIDUAL       RESIDUAL    
   LAYER,ROW,COL  LAYER,ROW,COL  LAYER,ROW,COL  LAYER,ROW,COL  LAYER,ROW,COL
 ---------------------------------------------------------------------------
  1 -0.1248E+06  0 -0.1091E+06  0 -0.2974E+05  0 -0.2119E+05  0  -5265.    
   ( 16,  1, 89)  ( 16,  1, 89)  ( 16,  1, 89)  ( 16,  1, 89)  ( 16,  1, 89)
  0   971.0      0   753.3      0   602.5      1   494.1    
   ( 17,  1, 89)  ( 17,  1, 89)  ( 17,  1, 89)  ( 17,  1, 89)


 FLOW MODEL IS TRANSIENT
 FLOW MODEL CONTAINS CONSTANT-HEAD CELLS


 MAXIMUM STEPSIZE DURING WHICH ANY PARTICLE CANNOT MOVE MORE THAN ONE CELL
 =  36.63    (WHEN MIN. R.F.=1)  AT K=  18, I=   1, J=  91

 MAXIMUM STEPSIZE WHICH MEETS STABILITY CRITERION OF THE ADVECTION TERM
 (FOR PURE FINITE-DIFFERENCE OPTION, MIXELM=0) 
 =  19.82    (WHEN MIN. R.F.=1)  AT K=  16, I=   1, J=  90


 TOTAL NUMBER OF POINT SOURCES/SINKS PRESENT IN THE FLOW MODEL =    30

 MAXIMUM STEPSIZE WHICH MEETS STABILITY CRITERION OF THE SINK & SOURCE TERM
 =  30.16    (WHEN MIN. R.F.=1)  AT K=  17, I=   1, J=  91

 MAXIMUM STEPSIZE WHICH MEETS STABILITY CRITERION OF THE DISPERSION TERM
 =  7.793    (WHEN MIN. R.F.=1)  AT K=  16, I=   1, J=  89
     1 CALLS TO GCG PACKAGE FOR TRANSPORT TIME STEP  88 IN FLOW TIME STEP   1 STRESS PERIOD   1
     4 TOTAL ITERATIONS
0WARNING: NUMERICAL OSCILLATION ENCOUNTERED
 ONE OR MORE CELL CONCENTRATIONS LESS THAN CRHOREF
 SMALLEST DENSITY =  0.100E+04
 AT CELL (I,J,K) = (   1,  68,   7)

 
 SOLVING FOR HEAD 


     2 CALLS TO PCG ROUTINE FOR TIME STEP   1 IN STRESS PERIOD    1
     9 TOTAL ITERATIONS

 MAXIMUM HEAD CHANGE FOR EACH ITERATION (1 INDICATES THE FIRST INNER ITERATION):

    HEAD CHANGE    HEAD CHANGE    HEAD CHANGE    HEAD CHANGE    HEAD CHANGE 
   LAYER,ROW,COL  LAYER,ROW,COL  LAYER,ROW,COL  LAYER,ROW,COL  LAYER,ROW,COL
 ---------------------------------------------------------------------------
  1 -0.8338E-02  0 -0.6061E-02  0  0.9203E-02  0 -0.5308E-02  0 -0.8177E-02
   ( 23,  1, 73)  (  9,  1, 12)  ( 11,  1, 66)  ( 11,  1, 65)  ( 11,  1, 70)
  0  0.5553E-02  0  0.1242E-02  0  0.6784E-03  1 -0.2062E-03
   ( 11,  1, 70)  ( 11,  1, 70)  ( 11,  1, 71)  ( 11,  1, 70)

 MAXIMUM RESIDUAL FOR EACH ITERATION (1 INDICATES THE FIRST INNER ITERATION):

    RESIDUAL       RESIDUAL       RESIDUAL       RESIDUAL       RESIDUAL    
   LAYER,ROW,COL  LAYER,ROW,COL  LAYER,ROW,COL  LAYER,ROW,COL  LAYER,ROW,COL
 ---------------------------------------------------------------------------
  1 -0.1260E+06  0 -0.1089E+06  0 -0.1563E+05  0 -0.1124E+05  0  -3691.    
   ( 16,  1, 89)  ( 16,  1, 89)  ( 16,  1, 89)  ( 16,  1, 89)  ( 16,  1, 89)
  0   891.9      0   680.5      0   542.1      1   441.6    
   ( 17,  1, 89)  ( 17,  1, 89)  ( 17,  1, 89)  ( 17,  1, 89)


 FLOW MODEL IS TRANSIENT
 FLOW MODEL CONTAINS CONSTANT-HEAD CELLS


 MAXIMUM STEPSIZE DURING WHICH ANY PARTICLE CANNOT MOVE MORE THAN ONE CELL
 =  34.86    (WHEN MIN. R.F.=1)  AT K=  18, I=   1, J=  91

 MAXIMUM STEPSIZE WHICH MEETS STABILITY CRITERION OF THE ADVECTION TERM
 (FOR PURE FINITE-DIFFERENCE OPTION, MIXELM=0) 
 =  19.11    (WHEN MIN. R.F.=1)  AT K=  16, I=   1, J=  90


 TOTAL NUMBER OF POINT SOURCES/SINKS PRESENT IN THE FLOW MODEL =    30

 MAXIMUM STEPSIZE WHICH MEETS STABILITY CRITERION OF THE SINK & SOURCE TERM
 =  28.74    (WHEN MIN. R.F.=1)  AT K=  17, I=   1, J=  91

 MAXIMUM STEPSIZE WHICH MEETS STABILITY CRITERION OF THE DISPERSION TERM
 =  7.663    (WHEN MIN. R.F.=1)  AT K=  16, I=   1, J=  89
     1 CALLS TO GCG PACKAGE FOR TRANSPORT TIME STEP  89 IN FLOW TIME STEP   1 STRESS PERIOD   1
     4 TOTAL ITERATIONS
0WARNING: NUMERICAL OSCILLATION ENCOUNTERED
 ONE OR MORE CELL CONCENTRATIONS LESS THAN CRHOREF
 SMALLEST DENSITY =  0.100E+04
 AT CELL (I,J,K) = (   1,  68,   7)

 
 SOLVING FOR HEAD 


     2 CALLS TO PCG ROUTINE FOR TIME STEP   1 IN STRESS PERIOD    1
     9 TOTAL ITERATIONS

 MAXIMUM HEAD CHANGE FOR EACH ITERATION (1 INDICATES THE FIRST INNER ITERATION):

    HEAD CHANGE    HEAD CHANGE    HEAD CHANGE    HEAD CHANGE    HEAD CHANGE 
   LAYER,ROW,COL  LAYER,ROW,COL  LAYER,ROW,COL  LAYER,ROW,COL  LAYER,ROW,COL
 ---------------------------------------------------------------------------
  1 -0.7563E-02  0 -0.5597E-02  0  0.8569E-02  0 -0.4197E-02  0 -0.6029E-02
   ( 23,  1, 72)  (  9,  1, 12)  ( 11,  1, 66)  ( 11,  1, 64)  ( 11,  1, 70)
  0  0.3233E-02  0  0.1105E-02  0  0.6006E-03  1 -0.2070E-03
   ( 11,  1, 69)  ( 11,  1, 70)  ( 11,  1, 71)  ( 11,  1, 70)

 MAXIMUM RESIDUAL FOR EACH ITERATION (1 INDICATES THE FIRST INNER ITERATION):

    RESIDUAL       RESIDUAL       RESIDUAL       RESIDUAL       RESIDUAL    
   LAYER,ROW,COL  LAYER,ROW,COL  LAYER,ROW,COL  LAYER,ROW,COL  LAYER,ROW,COL
 ---------------------------------------------------------------------------
  1 -0.1247E+06  0 -0.1073E+06  0  -6474.      0  -5027.      0   2661.    
   ( 16,  1, 89)  ( 16,  1, 89)  ( 16,  1, 89)  ( 22,  1, 74)  ( 17,  1, 89)
  0   830.3      0   612.4      0   484.4      1   392.4    
   ( 17,  1, 89)  ( 17,  1, 89)  ( 17,  1, 89)  ( 17,  1, 89)


 FLOW MODEL IS TRANSIENT
 FLOW MODEL CONTAINS CONSTANT-HEAD CELLS


 MAXIMUM STEPSIZE DURING WHICH ANY PARTICLE CANNOT MOVE MORE THAN ONE CELL
 =  33.33    (WHEN MIN. R.F.=1)  AT K=  18, I=   1, J=  91

 MAXIMUM STEPSIZE WHICH MEETS STABILITY CRITERION OF THE ADVECTION TERM
 (FOR PURE FINITE-DIFFERENCE OPTION, MIXELM=0) 
 =  18.47    (WHEN MIN. R.F.=1)  AT K=  16, I=   1, J=  90


 TOTAL NUMBER OF POINT SOURCES/SINKS PRESENT IN THE FLOW MODEL =    30

 MAXIMUM STEPSIZE WHICH MEETS STABILITY CRITERION OF THE SINK & SOURCE TERM
 =  27.50    (WHEN MIN. R.F.=1)  AT K=  17, I=   1, J=  91

 MAXIMUM STEPSIZE WHICH MEETS STABILITY CRITERION OF THE DISPERSION TERM
 =  7.543    (WHEN MIN. R.F.=1)  AT K=  16, I=   1, J=  89
     1 CALLS TO GCG PACKAGE FOR TRANSPORT TIME STEP  90 IN FLOW TIME STEP   1 STRESS PERIOD   1
     4 TOTAL ITERATIONS
  MAXIMUM CONCENTRATION CHANGES FOR EACH ITERATION:
  MAX. CHANGE LAYER,ROW,COL MAX. CHANGE LAYER,ROW,COL MAX. CHANGE LAYER,ROW,COL MAX. CHANGE LAYER,ROW,COL MAX. CHANGE LAYER,ROW,COL
 ------------------------------------------------------------------------------------------------------------------------------------
   0.3419     ( 16,  1, 90)  0.9609E-03 ( 17,  1, 89)  0.3926E-04 ( 16,  1, 89)  0.5799E-06 ( 17,  1, 89)



 >>>>>>>>>>>>>>>>>>>>>>>>>>>>>>>>>>>>>>>>>>>>>>>>>>>>>>>FOR COMPONENT NO. 01<<<<<<<<<<<<<<<<<<<<<<<<<<<<<<<<<<<<<<<<<<<<<<<<<<<<<<<


                                            -------------------------------------------
                                                      TRANSPORT STEP NO.   90
                                            -------------------------------------------

 TOTAL ELAPSED TIME SINCE BEGINNING OF SIMULATION =   843.9592    D   
 .....................................................................

                     CUMMULATIVE MASS BUDGETS AT END OF TRANSPORT STEP   90, TIME STEP    1, STRESS PERIOD    1
                     ------------------------------------------------------------------------------------------

                                                             IN                           OUT
                                                      ----------------             ----------------
                               CONSTANT CONCENTRATION:    0.000000                    0.000000    
                                        CONSTANT HEAD:    4205959.                   -7188005.    
                                             RECHARGE:    0.000000                    0.000000    
                                MASS STORAGE (SOLUTE):   0.2210109E+08              -0.1911903E+08
                            ---------------------------------------------------------------------------
                                              [TOTAL]:   0.2630818E+08 KG           -0.2630818E+08 KG  

                                                          NET (IN - OUT):    1.444183    
                                                   DISCREPANCY (PERCENT):   0.5489482E-05
0WARNING: NUMERICAL OSCILLATION ENCOUNTERED
 ONE OR MORE CELL CONCENTRATIONS LESS THAN CRHOREF
 SMALLEST DENSITY =  0.100E+04
 AT CELL (I,J,K) = (   1,  68,   7)

 
 SOLVING FOR HEAD 


     2 CALLS TO PCG ROUTINE FOR TIME STEP   1 IN STRESS PERIOD    1
     8 TOTAL ITERATIONS

 MAXIMUM HEAD CHANGE FOR EACH ITERATION (1 INDICATES THE FIRST INNER ITERATION):

    HEAD CHANGE    HEAD CHANGE    HEAD CHANGE    HEAD CHANGE    HEAD CHANGE 
   LAYER,ROW,COL  LAYER,ROW,COL  LAYER,ROW,COL  LAYER,ROW,COL  LAYER,ROW,COL
 ---------------------------------------------------------------------------
  1 -0.7007E-02  0 -0.5273E-02  0  0.8027E-02  0 -0.3568E-02  0 -0.4127E-02
   ( 23,  1, 73)  (  9,  1, 12)  ( 11,  1, 66)  ( 11,  1, 64)  ( 11,  1, 70)
  0  0.1537E-02  0  0.9507E-03  1  0.3978E-03
   ( 11,  1, 69)  ( 11,  1, 70)  ( 11,  1, 71)

 MAXIMUM RESIDUAL FOR EACH ITERATION (1 INDICATES THE FIRST INNER ITERATION):

    RESIDUAL       RESIDUAL       RESIDUAL       RESIDUAL       RESIDUAL    
   LAYER,ROW,COL  LAYER,ROW,COL  LAYER,ROW,COL  LAYER,ROW,COL  LAYER,ROW,COL
 ---------------------------------------------------------------------------
  1 -0.1197E+06  0 -0.1026E+06  0  -3188.      0   2741.      0   2133.    
   ( 16,  1, 89)  ( 16,  1, 89)  ( 17,  1, 74)  ( 22,  1, 74)  ( 17,  1, 89)
  0   829.6      0   581.1      1   502.9    
   ( 17,  1, 89)  ( 17,  1, 89)  ( 17,  1, 89)


 FLOW MODEL IS TRANSIENT
 FLOW MODEL CONTAINS CONSTANT-HEAD CELLS


 MAXIMUM STEPSIZE DURING WHICH ANY PARTICLE CANNOT MOVE MORE THAN ONE CELL
 =  32.02    (WHEN MIN. R.F.=1)  AT K=  18, I=   1, J=  91

 MAXIMUM STEPSIZE WHICH MEETS STABILITY CRITERION OF THE ADVECTION TERM
 (FOR PURE FINITE-DIFFERENCE OPTION, MIXELM=0) 
 =  17.90    (WHEN MIN. R.F.=1)  AT K=  16, I=   1, J=  90


 TOTAL NUMBER OF POINT SOURCES/SINKS PRESENT IN THE FLOW MODEL =    30

 MAXIMUM STEPSIZE WHICH MEETS STABILITY CRITERION OF THE SINK & SOURCE TERM
 =  26.43    (WHEN MIN. R.F.=1)  AT K=  17, I=   1, J=  91

 MAXIMUM STEPSIZE WHICH MEETS STABILITY CRITERION OF THE DISPERSION TERM
 =  7.433    (WHEN MIN. R.F.=1)  AT K=  16, I=   1, J=  89
     1 CALLS TO GCG PACKAGE FOR TRANSPORT TIME STEP  91 IN FLOW TIME STEP   1 STRESS PERIOD   1
     4 TOTAL ITERATIONS
0WARNING: NUMERICAL OSCILLATION ENCOUNTERED
 ONE OR MORE CELL CONCENTRATIONS LESS THAN CRHOREF
 SMALLEST DENSITY =  0.100E+04
 AT CELL (I,J,K) = (   1,  68,   7)

 
 SOLVING FOR HEAD 


     2 CALLS TO PCG ROUTINE FOR TIME STEP   1 IN STRESS PERIOD    1
     8 TOTAL ITERATIONS

 MAXIMUM HEAD CHANGE FOR EACH ITERATION (1 INDICATES THE FIRST INNER ITERATION):

    HEAD CHANGE    HEAD CHANGE    HEAD CHANGE    HEAD CHANGE    HEAD CHANGE 
   LAYER,ROW,COL  LAYER,ROW,COL  LAYER,ROW,COL  LAYER,ROW,COL  LAYER,ROW,COL
 ---------------------------------------------------------------------------
  1 -0.6621E-02  0 -0.5008E-02  0  0.7853E-02  0 -0.3584E-02  0 -0.3095E-02
   ( 23,  1, 72)  (  9,  1, 12)  ( 11,  1, 65)  ( 11,  1, 64)  ( 11,  1, 70)
  0 -0.1126E-02  0  0.7757E-03  1  0.3249E-03
   ( 11,  1, 71)  ( 11,  1, 70)  ( 11,  1, 71)

 MAXIMUM RESIDUAL FOR EACH ITERATION (1 INDICATES THE FIRST INNER ITERATION):

    RESIDUAL       RESIDUAL       RESIDUAL       RESIDUAL       RESIDUAL    
   LAYER,ROW,COL  LAYER,ROW,COL  LAYER,ROW,COL  LAYER,ROW,COL  LAYER,ROW,COL
 ---------------------------------------------------------------------------
  1 -0.1150E+06  0 -0.9825E+05  0  -2508.      0   2164.      0   1825.    
   ( 16,  1, 89)  ( 16,  1, 89)  ( 23,  1, 90)  ( 17,  1, 89)  ( 17,  1, 89)
  0   793.5      0   553.0      1   478.9    
   ( 17,  1, 89)  ( 17,  1, 89)  ( 17,  1, 89)


 FLOW MODEL IS TRANSIENT
 FLOW MODEL CONTAINS CONSTANT-HEAD CELLS


 MAXIMUM STEPSIZE DURING WHICH ANY PARTICLE CANNOT MOVE MORE THAN ONE CELL
 =  30.92    (WHEN MIN. R.F.=1)  AT K=  18, I=   1, J=  91

 MAXIMUM STEPSIZE WHICH MEETS STABILITY CRITERION OF THE ADVECTION TERM
 (FOR PURE FINITE-DIFFERENCE OPTION, MIXELM=0) 
 =  17.40    (WHEN MIN. R.F.=1)  AT K=  16, I=   1, J=  90


 TOTAL NUMBER OF POINT SOURCES/SINKS PRESENT IN THE FLOW MODEL =    30

 MAXIMUM STEPSIZE WHICH MEETS STABILITY CRITERION OF THE SINK & SOURCE TERM
 =  25.53    (WHEN MIN. R.F.=1)  AT K=  17, I=   1, J=  91

 MAXIMUM STEPSIZE WHICH MEETS STABILITY CRITERION OF THE DISPERSION TERM
 =  7.329    (WHEN MIN. R.F.=1)  AT K=  16, I=   1, J=  89
     1 CALLS TO GCG PACKAGE FOR TRANSPORT TIME STEP  92 IN FLOW TIME STEP   1 STRESS PERIOD   1
     4 TOTAL ITERATIONS
0WARNING: NUMERICAL OSCILLATION ENCOUNTERED
 ONE OR MORE CELL CONCENTRATIONS LESS THAN CRHOREF
 SMALLEST DENSITY =  0.100E+04
 AT CELL (I,J,K) = (   1,  68,   7)

 
 SOLVING FOR HEAD 


     2 CALLS TO PCG ROUTINE FOR TIME STEP   1 IN STRESS PERIOD    1
     7 TOTAL ITERATIONS

 MAXIMUM HEAD CHANGE FOR EACH ITERATION (1 INDICATES THE FIRST INNER ITERATION):

    HEAD CHANGE    HEAD CHANGE    HEAD CHANGE    HEAD CHANGE    HEAD CHANGE 
   LAYER,ROW,COL  LAYER,ROW,COL  LAYER,ROW,COL  LAYER,ROW,COL  LAYER,ROW,COL
 ---------------------------------------------------------------------------
  1 -0.6213E-02  0 -0.4726E-02  0  0.7065E-02  0 -0.3094E-02  0 -0.2893E-02
   ( 21,  1, 72)  (  9,  1, 12)  ( 11,  1, 66)  ( 11,  1, 64)  ( 11,  1, 70)
  0 -0.9742E-03  1  0.5156E-03
   ( 11,  1, 71)  ( 11,  1, 70)

 MAXIMUM RESIDUAL FOR EACH ITERATION (1 INDICATES THE FIRST INNER ITERATION):

    RESIDUAL       RESIDUAL       RESIDUAL       RESIDUAL       RESIDUAL    
   LAYER,ROW,COL  LAYER,ROW,COL  LAYER,ROW,COL  LAYER,ROW,COL  LAYER,ROW,COL
 ---------------------------------------------------------------------------
  1 -0.9299E+05  0 -0.7945E+05  0  -2634.      0  -2173.      0  -1569.    
   ( 16,  1, 89)  ( 16,  1, 89)  ( 23,  1, 90)  ( 21,  1, 90)  ( 21,  1, 90)
  0   586.7      1   531.7    
   ( 17,  1, 89)  ( 17,  1, 89)


 FLOW MODEL IS TRANSIENT
 FLOW MODEL CONTAINS CONSTANT-HEAD CELLS


 MAXIMUM STEPSIZE DURING WHICH ANY PARTICLE CANNOT MOVE MORE THAN ONE CELL
 =  29.87    (WHEN MIN. R.F.=1)  AT K=  18, I=   1, J=  91

 MAXIMUM STEPSIZE WHICH MEETS STABILITY CRITERION OF THE ADVECTION TERM
 (FOR PURE FINITE-DIFFERENCE OPTION, MIXELM=0) 
 =  16.89    (WHEN MIN. R.F.=1)  AT K=  16, I=   1, J=  90


 TOTAL NUMBER OF POINT SOURCES/SINKS PRESENT IN THE FLOW MODEL =    30

 MAXIMUM STEPSIZE WHICH MEETS STABILITY CRITERION OF THE SINK & SOURCE TERM
 =  24.61    (WHEN MIN. R.F.=1)  AT K=  17, I=   1, J=  91

 MAXIMUM STEPSIZE WHICH MEETS STABILITY CRITERION OF THE DISPERSION TERM
 =  7.243    (WHEN MIN. R.F.=1)  AT K=  16, I=   1, J=  89
     1 CALLS TO GCG PACKAGE FOR TRANSPORT TIME STEP  93 IN FLOW TIME STEP   1 STRESS PERIOD   1
     4 TOTAL ITERATIONS
0WARNING: NUMERICAL OSCILLATION ENCOUNTERED
 ONE OR MORE CELL CONCENTRATIONS LESS THAN CRHOREF
 SMALLEST DENSITY =  0.100E+04
 AT CELL (I,J,K) = (   1,  68,   7)

 
 SOLVING FOR HEAD 


     2 CALLS TO PCG ROUTINE FOR TIME STEP   1 IN STRESS PERIOD    1
     8 TOTAL ITERATIONS

 MAXIMUM HEAD CHANGE FOR EACH ITERATION (1 INDICATES THE FIRST INNER ITERATION):

    HEAD CHANGE    HEAD CHANGE    HEAD CHANGE    HEAD CHANGE    HEAD CHANGE 
   LAYER,ROW,COL  LAYER,ROW,COL  LAYER,ROW,COL  LAYER,ROW,COL  LAYER,ROW,COL
 ---------------------------------------------------------------------------
  1 -0.5837E-02  0 -0.4483E-02  0  0.5568E-02  0 -0.2657E-02  0 -0.2434E-02
   ( 23,  1, 72)  (  9,  1, 12)  ( 11,  1, 65)  ( 11,  1, 63)  ( 11,  1, 70)
  0 -0.1036E-02  0  0.7120E-03  1  0.3991E-03
   ( 11,  1, 71)  ( 11,  1, 70)  ( 11,  1, 71)

 MAXIMUM RESIDUAL FOR EACH ITERATION (1 INDICATES THE FIRST INNER ITERATION):

    RESIDUAL       RESIDUAL       RESIDUAL       RESIDUAL       RESIDUAL    
   LAYER,ROW,COL  LAYER,ROW,COL  LAYER,ROW,COL  LAYER,ROW,COL  LAYER,ROW,COL
 ---------------------------------------------------------------------------
  1 -0.6613E+05  0 -0.5628E+05  0   2250.      0   1960.      0  -1543.    
   ( 16,  1, 89)  ( 16,  1, 89)  ( 18,  1, 91)  ( 18,  1, 91)  ( 19,  1, 90)
  0   680.6      0   315.7      1   264.8    
   ( 18,  1, 91)  ( 18,  1, 91)  ( 18,  1, 91)


 FLOW MODEL IS TRANSIENT
 FLOW MODEL CONTAINS CONSTANT-HEAD CELLS


 MAXIMUM STEPSIZE DURING WHICH ANY PARTICLE CANNOT MOVE MORE THAN ONE CELL
 =  29.10    (WHEN MIN. R.F.=1)  AT K=  18, I=   1, J=  91

 MAXIMUM STEPSIZE WHICH MEETS STABILITY CRITERION OF THE ADVECTION TERM
 (FOR PURE FINITE-DIFFERENCE OPTION, MIXELM=0) 
 =  16.39    (WHEN MIN. R.F.=1)  AT K=  16, I=   1, J=  90


 TOTAL NUMBER OF POINT SOURCES/SINKS PRESENT IN THE FLOW MODEL =    30

 MAXIMUM STEPSIZE WHICH MEETS STABILITY CRITERION OF THE SINK & SOURCE TERM
 =  23.84    (WHEN MIN. R.F.=1)  AT K=  17, I=   1, J=  91

 MAXIMUM STEPSIZE WHICH MEETS STABILITY CRITERION OF THE DISPERSION TERM
 =  7.166    (WHEN MIN. R.F.=1)  AT K=  16, I=   1, J=  89
     1 CALLS TO GCG PACKAGE FOR TRANSPORT TIME STEP  94 IN FLOW TIME STEP   1 STRESS PERIOD   1
     4 TOTAL ITERATIONS
0WARNING: NUMERICAL OSCILLATION ENCOUNTERED
 ONE OR MORE CELL CONCENTRATIONS LESS THAN CRHOREF
 SMALLEST DENSITY =  0.100E+04
 AT CELL (I,J,K) = (   1,  68,   7)

 
 SOLVING FOR HEAD 


     2 CALLS TO PCG ROUTINE FOR TIME STEP   1 IN STRESS PERIOD    1
     7 TOTAL ITERATIONS

 MAXIMUM HEAD CHANGE FOR EACH ITERATION (1 INDICATES THE FIRST INNER ITERATION):

    HEAD CHANGE    HEAD CHANGE    HEAD CHANGE    HEAD CHANGE    HEAD CHANGE 
   LAYER,ROW,COL  LAYER,ROW,COL  LAYER,ROW,COL  LAYER,ROW,COL  LAYER,ROW,COL
 ---------------------------------------------------------------------------
  1 -0.5532E-02  0 -0.4264E-02  0  0.6089E-02  0 -0.2851E-02  0 -0.2493E-02
   ( 21,  1, 72)  (  9,  1, 12)  ( 11,  1, 65)  ( 11,  1, 64)  ( 11,  1, 70)
  0 -0.8772E-03  1  0.5147E-03
   ( 11,  1, 71)  ( 11,  1, 61)

 MAXIMUM RESIDUAL FOR EACH ITERATION (1 INDICATES THE FIRST INNER ITERATION):

    RESIDUAL       RESIDUAL       RESIDUAL       RESIDUAL       RESIDUAL    
   LAYER,ROW,COL  LAYER,ROW,COL  LAYER,ROW,COL  LAYER,ROW,COL  LAYER,ROW,COL
 ---------------------------------------------------------------------------
  1 -0.5530E+05  0 -0.4701E+05  0  -2400.      0  -1961.      0  -1317.    
   ( 16,  1, 89)  ( 16,  1, 89)  ( 23,  1, 90)  ( 23,  1, 90)  ( 20,  1, 90)
  0   438.8      1   382.4    
   ( 18,  1, 91)  ( 18,  1, 91)


 FLOW MODEL IS TRANSIENT
 FLOW MODEL CONTAINS CONSTANT-HEAD CELLS


 MAXIMUM STEPSIZE DURING WHICH ANY PARTICLE CANNOT MOVE MORE THAN ONE CELL
 =  28.26    (WHEN MIN. R.F.=1)  AT K=  18, I=   1, J=  91

 MAXIMUM STEPSIZE WHICH MEETS STABILITY CRITERION OF THE ADVECTION TERM
 (FOR PURE FINITE-DIFFERENCE OPTION, MIXELM=0) 
 =  15.95    (WHEN MIN. R.F.=1)  AT K=  16, I=   1, J=  90


 TOTAL NUMBER OF POINT SOURCES/SINKS PRESENT IN THE FLOW MODEL =    30

 MAXIMUM STEPSIZE WHICH MEETS STABILITY CRITERION OF THE SINK & SOURCE TERM
 =  23.10    (WHEN MIN. R.F.=1)  AT K=  17, I=   1, J=  91

 MAXIMUM STEPSIZE WHICH MEETS STABILITY CRITERION OF THE DISPERSION TERM
 =  7.099    (WHEN MIN. R.F.=1)  AT K=  16, I=   1, J=  89
     1 CALLS TO GCG PACKAGE FOR TRANSPORT TIME STEP  95 IN FLOW TIME STEP   1 STRESS PERIOD   1
     4 TOTAL ITERATIONS
  MAXIMUM CONCENTRATION CHANGES FOR EACH ITERATION:
  MAX. CHANGE LAYER,ROW,COL MAX. CHANGE LAYER,ROW,COL MAX. CHANGE LAYER,ROW,COL MAX. CHANGE LAYER,ROW,COL MAX. CHANGE LAYER,ROW,COL
 ------------------------------------------------------------------------------------------------------------------------------------
   0.3391     ( 16,  1, 90)  0.8921E-03 ( 17,  1, 89)  0.2952E-04 ( 16,  1, 89)  0.3317E-06 ( 17,  1, 89)
0WARNING: NUMERICAL OSCILLATION ENCOUNTERED
 ONE OR MORE CELL CONCENTRATIONS LESS THAN CRHOREF
 SMALLEST DENSITY =  0.100E+04
 AT CELL (I,J,K) = (   1,  68,   7)

 
 SOLVING FOR HEAD 


     2 CALLS TO PCG ROUTINE FOR TIME STEP   1 IN STRESS PERIOD    1
     7 TOTAL ITERATIONS

 MAXIMUM HEAD CHANGE FOR EACH ITERATION (1 INDICATES THE FIRST INNER ITERATION):

    HEAD CHANGE    HEAD CHANGE    HEAD CHANGE    HEAD CHANGE    HEAD CHANGE 
   LAYER,ROW,COL  LAYER,ROW,COL  LAYER,ROW,COL  LAYER,ROW,COL  LAYER,ROW,COL
 ---------------------------------------------------------------------------
  1 -0.5225E-02  0 -0.4090E-02  0  0.5261E-02  0 -0.2692E-02  0 -0.2010E-02
   ( 21,  1, 72)  (  9,  1, 12)  ( 11,  1, 64)  ( 11,  1, 63)  ( 11,  1, 70)
  0 -0.8940E-03  1  0.4426E-03
   ( 11,  1, 71)  ( 11,  1, 70)

 MAXIMUM RESIDUAL FOR EACH ITERATION (1 INDICATES THE FIRST INNER ITERATION):

    RESIDUAL       RESIDUAL       RESIDUAL       RESIDUAL       RESIDUAL    
   LAYER,ROW,COL  LAYER,ROW,COL  LAYER,ROW,COL  LAYER,ROW,COL  LAYER,ROW,COL
 ---------------------------------------------------------------------------
  1 -0.5266E+05  0 -0.4436E+05  0   1693.      0   1414.      0   1111.    
   ( 22,  1, 58)  ( 22,  1, 58)  ( 21,  1, 57)  ( 18,  1, 91)  ( 18,  1, 91)
  0   516.1      1   451.3    
   ( 18,  1, 91)  ( 18,  1, 91)


 FLOW MODEL IS TRANSIENT
 FLOW MODEL CONTAINS CONSTANT-HEAD CELLS


 MAXIMUM STEPSIZE DURING WHICH ANY PARTICLE CANNOT MOVE MORE THAN ONE CELL
 =  27.76    (WHEN MIN. R.F.=1)  AT K=  18, I=   1, J=  91

 MAXIMUM STEPSIZE WHICH MEETS STABILITY CRITERION OF THE ADVECTION TERM
 (FOR PURE FINITE-DIFFERENCE OPTION, MIXELM=0) 
 =  15.63    (WHEN MIN. R.F.=1)  AT K=  16, I=   1, J=  90


 TOTAL NUMBER OF POINT SOURCES/SINKS PRESENT IN THE FLOW MODEL =    30

 MAXIMUM STEPSIZE WHICH MEETS STABILITY CRITERION OF THE SINK & SOURCE TERM
 =  22.62    (WHEN MIN. R.F.=1)  AT K=  17, I=   1, J=  91

 MAXIMUM STEPSIZE WHICH MEETS STABILITY CRITERION OF THE DISPERSION TERM
 =  7.032    (WHEN MIN. R.F.=1)  AT K=  16, I=   1, J=  89
     1 CALLS TO GCG PACKAGE FOR TRANSPORT TIME STEP  96 IN FLOW TIME STEP   1 STRESS PERIOD   1
     4 TOTAL ITERATIONS
0WARNING: NUMERICAL OSCILLATION ENCOUNTERED
 ONE OR MORE CELL CONCENTRATIONS LESS THAN CRHOREF
 SMALLEST DENSITY =  0.100E+04
 AT CELL (I,J,K) = (   1,  68,   7)

 
 SOLVING FOR HEAD 


     2 CALLS TO PCG ROUTINE FOR TIME STEP   1 IN STRESS PERIOD    1
     7 TOTAL ITERATIONS

 MAXIMUM HEAD CHANGE FOR EACH ITERATION (1 INDICATES THE FIRST INNER ITERATION):

    HEAD CHANGE    HEAD CHANGE    HEAD CHANGE    HEAD CHANGE    HEAD CHANGE 
   LAYER,ROW,COL  LAYER,ROW,COL  LAYER,ROW,COL  LAYER,ROW,COL  LAYER,ROW,COL
 ---------------------------------------------------------------------------
  1 -0.4978E-02  0 -0.3933E-02  0  0.4938E-02  0 -0.2498E-02  0 -0.1788E-02
   ( 21,  1, 72)  (  9,  1, 12)  ( 11,  1, 65)  ( 11,  1, 63)  ( 11,  1, 70)
  0 -0.7994E-03  1  0.4354E-03
   ( 11,  1, 71)  ( 11,  1, 70)

 MAXIMUM RESIDUAL FOR EACH ITERATION (1 INDICATES THE FIRST INNER ITERATION):

    RESIDUAL       RESIDUAL       RESIDUAL       RESIDUAL       RESIDUAL    
   LAYER,ROW,COL  LAYER,ROW,COL  LAYER,ROW,COL  LAYER,ROW,COL  LAYER,ROW,COL
 ---------------------------------------------------------------------------
  1 -0.5120E+05  0 -0.4300E+05  0   1750.      0   1282.      0   1032.    
   ( 22,  1, 58)  ( 22,  1, 58)  ( 21,  1, 57)  ( 18,  1, 91)  ( 18,  1, 91)
  0   533.5      1   465.5    
   ( 18,  1, 91)  ( 18,  1, 91)


 FLOW MODEL IS TRANSIENT
 FLOW MODEL CONTAINS CONSTANT-HEAD CELLS


 MAXIMUM STEPSIZE DURING WHICH ANY PARTICLE CANNOT MOVE MORE THAN ONE CELL
 =  27.40    (WHEN MIN. R.F.=1)  AT K=  18, I=   1, J=  91

 MAXIMUM STEPSIZE WHICH MEETS STABILITY CRITERION OF THE ADVECTION TERM
 (FOR PURE FINITE-DIFFERENCE OPTION, MIXELM=0) 
 =  15.37    (WHEN MIN. R.F.=1)  AT K=  16, I=   1, J=  90


 TOTAL NUMBER OF POINT SOURCES/SINKS PRESENT IN THE FLOW MODEL =    30

 MAXIMUM STEPSIZE WHICH MEETS STABILITY CRITERION OF THE SINK & SOURCE TERM
 =  22.26    (WHEN MIN. R.F.=1)  AT K=  17, I=   1, J=  91

 MAXIMUM STEPSIZE WHICH MEETS STABILITY CRITERION OF THE DISPERSION TERM
 =  6.969    (WHEN MIN. R.F.=1)  AT K=  16, I=   1, J=  89
     1 CALLS TO GCG PACKAGE FOR TRANSPORT TIME STEP  97 IN FLOW TIME STEP   1 STRESS PERIOD   1
     4 TOTAL ITERATIONS
0WARNING: NUMERICAL OSCILLATION ENCOUNTERED
 ONE OR MORE CELL CONCENTRATIONS LESS THAN CRHOREF
 SMALLEST DENSITY =  0.100E+04
 AT CELL (I,J,K) = (   1,  68,   7)

 
 SOLVING FOR HEAD 


     2 CALLS TO PCG ROUTINE FOR TIME STEP   1 IN STRESS PERIOD    1
     7 TOTAL ITERATIONS

 MAXIMUM HEAD CHANGE FOR EACH ITERATION (1 INDICATES THE FIRST INNER ITERATION):

    HEAD CHANGE    HEAD CHANGE    HEAD CHANGE    HEAD CHANGE    HEAD CHANGE 
   LAYER,ROW,COL  LAYER,ROW,COL  LAYER,ROW,COL  LAYER,ROW,COL  LAYER,ROW,COL
 ---------------------------------------------------------------------------
  1 -0.4800E-02  0 -0.3810E-02  0  0.4673E-02  0 -0.2335E-02  0 -0.1721E-02
   ( 21,  1, 72)  (  9,  1, 12)  ( 11,  1, 65)  ( 11,  1, 63)  ( 11,  1, 70)
  0 -0.7434E-03  1  0.4388E-03
   ( 11,  1, 71)  ( 11,  1, 70)

 MAXIMUM RESIDUAL FOR EACH ITERATION (1 INDICATES THE FIRST INNER ITERATION):

    RESIDUAL       RESIDUAL       RESIDUAL       RESIDUAL       RESIDUAL    
   LAYER,ROW,COL  LAYER,ROW,COL  LAYER,ROW,COL  LAYER,ROW,COL  LAYER,ROW,COL
 ---------------------------------------------------------------------------
  1 -0.5022E+05  0 -0.4211E+05  0   1803.      0   1292.      0   999.3    
   ( 22,  1, 58)  ( 22,  1, 58)  ( 21,  1, 57)  ( 21,  1, 57)  ( 18,  1, 91)
  0   529.2      1   469.3    
   ( 21,  1, 57)  ( 21,  1, 57)


 FLOW MODEL IS TRANSIENT
 FLOW MODEL CONTAINS CONSTANT-HEAD CELLS


 MAXIMUM STEPSIZE DURING WHICH ANY PARTICLE CANNOT MOVE MORE THAN ONE CELL
 =  27.03    (WHEN MIN. R.F.=1)  AT K=  18, I=   1, J=  91

 MAXIMUM STEPSIZE WHICH MEETS STABILITY CRITERION OF THE ADVECTION TERM
 (FOR PURE FINITE-DIFFERENCE OPTION, MIXELM=0) 
 =  15.12    (WHEN MIN. R.F.=1)  AT K=  16, I=   1, J=  90


 TOTAL NUMBER OF POINT SOURCES/SINKS PRESENT IN THE FLOW MODEL =    30

 MAXIMUM STEPSIZE WHICH MEETS STABILITY CRITERION OF THE SINK & SOURCE TERM
 =  21.91    (WHEN MIN. R.F.=1)  AT K=  17, I=   1, J=  91

 MAXIMUM STEPSIZE WHICH MEETS STABILITY CRITERION OF THE DISPERSION TERM
 =  6.912    (WHEN MIN. R.F.=1)  AT K=  16, I=   1, J=  89
     1 CALLS TO GCG PACKAGE FOR TRANSPORT TIME STEP  98 IN FLOW TIME STEP   1 STRESS PERIOD   1
     4 TOTAL ITERATIONS
0WARNING: NUMERICAL OSCILLATION ENCOUNTERED
 ONE OR MORE CELL CONCENTRATIONS LESS THAN CRHOREF
 SMALLEST DENSITY =  0.100E+04
 AT CELL (I,J,K) = (   1,  68,   7)

 
 SOLVING FOR HEAD 


     2 CALLS TO PCG ROUTINE FOR TIME STEP   1 IN STRESS PERIOD    1
     7 TOTAL ITERATIONS

 MAXIMUM HEAD CHANGE FOR EACH ITERATION (1 INDICATES THE FIRST INNER ITERATION):

    HEAD CHANGE    HEAD CHANGE    HEAD CHANGE    HEAD CHANGE    HEAD CHANGE 
   LAYER,ROW,COL  LAYER,ROW,COL  LAYER,ROW,COL  LAYER,ROW,COL  LAYER,ROW,COL
 ---------------------------------------------------------------------------
  1 -0.4653E-02  0 -0.3709E-02  0  0.4451E-02  0 -0.2226E-02  0 -0.1673E-02
   ( 23,  1, 72)  (  9,  1, 12)  ( 11,  1, 65)  ( 11,  1, 63)  ( 11,  1, 70)
  0 -0.7155E-03  1  0.4395E-03
   ( 11,  1, 71)  ( 11,  1, 70)

 MAXIMUM RESIDUAL FOR EACH ITERATION (1 INDICATES THE FIRST INNER ITERATION):

    RESIDUAL       RESIDUAL       RESIDUAL       RESIDUAL       RESIDUAL    
   LAYER,ROW,COL  LAYER,ROW,COL  LAYER,ROW,COL  LAYER,ROW,COL  LAYER,ROW,COL
 ---------------------------------------------------------------------------
  1 -0.4938E+05  0 -0.4134E+05  0   1861.      0   1354.      0   1013.    
   ( 22,  1, 58)  ( 22,  1, 58)  ( 21,  1, 57)  ( 21,  1, 57)  ( 21,  1, 57)
  0   549.9      1   486.4    
   ( 21,  1, 57)  ( 21,  1, 57)


 FLOW MODEL IS TRANSIENT
 FLOW MODEL CONTAINS CONSTANT-HEAD CELLS


 MAXIMUM STEPSIZE DURING WHICH ANY PARTICLE CANNOT MOVE MORE THAN ONE CELL
 =  26.67    (WHEN MIN. R.F.=1)  AT K=  18, I=   1, J=  91

 MAXIMUM STEPSIZE WHICH MEETS STABILITY CRITERION OF THE ADVECTION TERM
 (FOR PURE FINITE-DIFFERENCE OPTION, MIXELM=0) 
 =  14.88    (WHEN MIN. R.F.=1)  AT K=  16, I=   1, J=  90


 TOTAL NUMBER OF POINT SOURCES/SINKS PRESENT IN THE FLOW MODEL =    30

 MAXIMUM STEPSIZE WHICH MEETS STABILITY CRITERION OF THE SINK & SOURCE TERM
 =  21.57    (WHEN MIN. R.F.=1)  AT K=  17, I=   1, J=  91

 MAXIMUM STEPSIZE WHICH MEETS STABILITY CRITERION OF THE DISPERSION TERM
 =  6.859    (WHEN MIN. R.F.=1)  AT K=  16, I=   1, J=  89
     1 CALLS TO GCG PACKAGE FOR TRANSPORT TIME STEP  99 IN FLOW TIME STEP   1 STRESS PERIOD   1
     4 TOTAL ITERATIONS
0WARNING: NUMERICAL OSCILLATION ENCOUNTERED
 ONE OR MORE CELL CONCENTRATIONS LESS THAN CRHOREF
 SMALLEST DENSITY =  0.100E+04
 AT CELL (I,J,K) = (   1,  68,   7)

 
 SOLVING FOR HEAD 


     2 CALLS TO PCG ROUTINE FOR TIME STEP   1 IN STRESS PERIOD    1
     7 TOTAL ITERATIONS

 MAXIMUM HEAD CHANGE FOR EACH ITERATION (1 INDICATES THE FIRST INNER ITERATION):

    HEAD CHANGE    HEAD CHANGE    HEAD CHANGE    HEAD CHANGE    HEAD CHANGE 
   LAYER,ROW,COL  LAYER,ROW,COL  LAYER,ROW,COL  LAYER,ROW,COL  LAYER,ROW,COL
 ---------------------------------------------------------------------------
  1 -0.4520E-02  0 -0.3616E-02  0  0.4257E-02  0 -0.2136E-02  0 -0.1620E-02
   ( 23,  1, 72)  (  9,  1, 12)  ( 11,  1, 65)  ( 11,  1, 63)  ( 11,  1, 70)
  0 -0.6928E-03  1  0.4372E-03
   ( 11,  1, 71)  ( 11,  1, 70)

 MAXIMUM RESIDUAL FOR EACH ITERATION (1 INDICATES THE FIRST INNER ITERATION):

    RESIDUAL       RESIDUAL       RESIDUAL       RESIDUAL       RESIDUAL    
   LAYER,ROW,COL  LAYER,ROW,COL  LAYER,ROW,COL  LAYER,ROW,COL  LAYER,ROW,COL
 ---------------------------------------------------------------------------
  1 -0.4847E+05  0 -0.4050E+05  0   1917.      0   1414.      0   1065.    
   ( 22,  1, 58)  ( 22,  1, 58)  ( 21,  1, 57)  ( 21,  1, 57)  ( 21,  1, 57)
  0   572.6      1   505.0    
   ( 21,  1, 57)  ( 21,  1, 57)


 FLOW MODEL IS TRANSIENT
 FLOW MODEL CONTAINS CONSTANT-HEAD CELLS


 MAXIMUM STEPSIZE DURING WHICH ANY PARTICLE CANNOT MOVE MORE THAN ONE CELL
 =  26.32    (WHEN MIN. R.F.=1)  AT K=  18, I=   1, J=  91

 MAXIMUM STEPSIZE WHICH MEETS STABILITY CRITERION OF THE ADVECTION TERM
 (FOR PURE FINITE-DIFFERENCE OPTION, MIXELM=0) 
 =  14.66    (WHEN MIN. R.F.=1)  AT K=  16, I=   1, J=  90


 TOTAL NUMBER OF POINT SOURCES/SINKS PRESENT IN THE FLOW MODEL =    30

 MAXIMUM STEPSIZE WHICH MEETS STABILITY CRITERION OF THE SINK & SOURCE TERM
 =  21.26    (WHEN MIN. R.F.=1)  AT K=  17, I=   1, J=  91

 MAXIMUM STEPSIZE WHICH MEETS STABILITY CRITERION OF THE DISPERSION TERM
 =  6.809    (WHEN MIN. R.F.=1)  AT K=  16, I=   1, J=  89
     1 CALLS TO GCG PACKAGE FOR TRANSPORT TIME STEP 100 IN FLOW TIME STEP   1 STRESS PERIOD   1
     4 TOTAL ITERATIONS
  MAXIMUM CONCENTRATION CHANGES FOR EACH ITERATION:
  MAX. CHANGE LAYER,ROW,COL MAX. CHANGE LAYER,ROW,COL MAX. CHANGE LAYER,ROW,COL MAX. CHANGE LAYER,ROW,COL MAX. CHANGE LAYER,ROW,COL
 ------------------------------------------------------------------------------------------------------------------------------------
   0.3354     ( 16,  1, 90)  0.8329E-03 ( 17,  1, 89)  0.2448E-04 ( 16,  1, 89)  0.1660E-06 ( 17,  1, 89)



 >>>>>>>>>>>>>>>>>>>>>>>>>>>>>>>>>>>>>>>>>>>>>>>>>>>>>>>FOR COMPONENT NO. 01<<<<<<<<<<<<<<<<<<<<<<<<<<<<<<<<<<<<<<<<<<<<<<<<<<<<<<<


                                            -------------------------------------------
                                                      TRANSPORT STEP NO.  100
                                            -------------------------------------------

 TOTAL ELAPSED TIME SINCE BEGINNING OF SIMULATION =   925.9615    D   
 .....................................................................

                     CUMMULATIVE MASS BUDGETS AT END OF TRANSPORT STEP  100, TIME STEP    1, STRESS PERIOD    1
                     ------------------------------------------------------------------------------------------

                                                             IN                           OUT
                                                      ----------------             ----------------
                               CONSTANT CONCENTRATION:    0.000000                    0.000000    
                                        CONSTANT HEAD:    5993278.                   -9101507.    
                                             RECHARGE:    0.000000                    0.000000    
                                MASS STORAGE (SOLUTE):   0.2262255E+08              -0.1951431E+08
                            ---------------------------------------------------------------------------
                                              [TOTAL]:   0.2861696E+08 KG           -0.2861696E+08 KG  

                                                          NET (IN - OUT):    1.160341    
                                                   DISCREPANCY (PERCENT):   0.4054732E-05
0WARNING: NUMERICAL OSCILLATION ENCOUNTERED
 ONE OR MORE CELL CONCENTRATIONS LESS THAN CRHOREF
 SMALLEST DENSITY =  0.100E+04
 AT CELL (I,J,K) = (   1,  68,   7)

 
 SOLVING FOR HEAD 


     2 CALLS TO PCG ROUTINE FOR TIME STEP   1 IN STRESS PERIOD    1
     7 TOTAL ITERATIONS

 MAXIMUM HEAD CHANGE FOR EACH ITERATION (1 INDICATES THE FIRST INNER ITERATION):

    HEAD CHANGE    HEAD CHANGE    HEAD CHANGE    HEAD CHANGE    HEAD CHANGE 
   LAYER,ROW,COL  LAYER,ROW,COL  LAYER,ROW,COL  LAYER,ROW,COL  LAYER,ROW,COL
 ---------------------------------------------------------------------------
  1 -0.4397E-02  0 -0.3531E-02  0  0.4088E-02  0 -0.2057E-02  0 -0.1567E-02
   ( 23,  1, 72)  (  9,  1, 12)  ( 11,  1, 65)  ( 11,  1, 63)  ( 11,  1, 70)
  0 -0.6717E-03  1  0.4342E-03
   ( 11,  1, 71)  ( 11,  1, 70)

 MAXIMUM RESIDUAL FOR EACH ITERATION (1 INDICATES THE FIRST INNER ITERATION):

    RESIDUAL       RESIDUAL       RESIDUAL       RESIDUAL       RESIDUAL    
   LAYER,ROW,COL  LAYER,ROW,COL  LAYER,ROW,COL  LAYER,ROW,COL  LAYER,ROW,COL
 ---------------------------------------------------------------------------
  1 -0.4753E+05  0 -0.3963E+05  0   1961.      0   1464.      0   1109.    
   ( 22,  1, 58)  ( 22,  1, 58)  ( 21,  1, 57)  ( 21,  1, 57)  ( 21,  1, 57)
  0   590.3      1   519.2    
   ( 21,  1, 57)  ( 21,  1, 57)


 FLOW MODEL IS TRANSIENT
 FLOW MODEL CONTAINS CONSTANT-HEAD CELLS


 MAXIMUM STEPSIZE DURING WHICH ANY PARTICLE CANNOT MOVE MORE THAN ONE CELL
 =  25.99    (WHEN MIN. R.F.=1)  AT K=  18, I=   1, J=  91

 MAXIMUM STEPSIZE WHICH MEETS STABILITY CRITERION OF THE ADVECTION TERM
 (FOR PURE FINITE-DIFFERENCE OPTION, MIXELM=0) 
 =  14.46    (WHEN MIN. R.F.=1)  AT K=  16, I=   1, J=  90


 TOTAL NUMBER OF POINT SOURCES/SINKS PRESENT IN THE FLOW MODEL =    30

 MAXIMUM STEPSIZE WHICH MEETS STABILITY CRITERION OF THE SINK & SOURCE TERM
 =  20.97    (WHEN MIN. R.F.=1)  AT K=  17, I=   1, J=  91

 MAXIMUM STEPSIZE WHICH MEETS STABILITY CRITERION OF THE DISPERSION TERM
 =  6.763    (WHEN MIN. R.F.=1)  AT K=  16, I=   1, J=  89
     1 CALLS TO GCG PACKAGE FOR TRANSPORT TIME STEP 101 IN FLOW TIME STEP   1 STRESS PERIOD   1
     4 TOTAL ITERATIONS
0WARNING: NUMERICAL OSCILLATION ENCOUNTERED
 ONE OR MORE CELL CONCENTRATIONS LESS THAN CRHOREF
 SMALLEST DENSITY =  0.100E+04
 AT CELL (I,J,K) = (   1,  68,   6)

 
 SOLVING FOR HEAD 


     2 CALLS TO PCG ROUTINE FOR TIME STEP   1 IN STRESS PERIOD    1
     7 TOTAL ITERATIONS

 MAXIMUM HEAD CHANGE FOR EACH ITERATION (1 INDICATES THE FIRST INNER ITERATION):

    HEAD CHANGE    HEAD CHANGE    HEAD CHANGE    HEAD CHANGE    HEAD CHANGE 
   LAYER,ROW,COL  LAYER,ROW,COL  LAYER,ROW,COL  LAYER,ROW,COL  LAYER,ROW,COL
 ---------------------------------------------------------------------------
  1 -0.4284E-02  0 -0.3454E-02  0  0.3937E-02  0 -0.1988E-02  0 -0.1516E-02
   ( 23,  1, 72)  (  9,  1, 12)  ( 11,  1, 65)  ( 11,  1, 63)  ( 11,  1, 70)
  0 -0.6525E-03  1  0.4305E-03
   ( 11,  1, 71)  ( 11,  1, 70)

 MAXIMUM RESIDUAL FOR EACH ITERATION (1 INDICATES THE FIRST INNER ITERATION):

    RESIDUAL       RESIDUAL       RESIDUAL       RESIDUAL       RESIDUAL    
   LAYER,ROW,COL  LAYER,ROW,COL  LAYER,ROW,COL  LAYER,ROW,COL  LAYER,ROW,COL
 ---------------------------------------------------------------------------
  1 -0.4657E+05  0 -0.3876E+05  0   1993.      0   1501.      0   1143.    
   ( 22,  1, 58)  ( 22,  1, 58)  ( 21,  1, 57)  ( 21,  1, 57)  ( 21,  1, 57)
  0   603.1      1   529.1    
   ( 21,  1, 57)  ( 21,  1, 57)


 FLOW MODEL IS TRANSIENT
 FLOW MODEL CONTAINS CONSTANT-HEAD CELLS


 MAXIMUM STEPSIZE DURING WHICH ANY PARTICLE CANNOT MOVE MORE THAN ONE CELL
 =  25.68    (WHEN MIN. R.F.=1)  AT K=  18, I=   1, J=  91

 MAXIMUM STEPSIZE WHICH MEETS STABILITY CRITERION OF THE ADVECTION TERM
 (FOR PURE FINITE-DIFFERENCE OPTION, MIXELM=0) 
 =  14.27    (WHEN MIN. R.F.=1)  AT K=  16, I=   1, J=  90


 TOTAL NUMBER OF POINT SOURCES/SINKS PRESENT IN THE FLOW MODEL =    30

 MAXIMUM STEPSIZE WHICH MEETS STABILITY CRITERION OF THE SINK & SOURCE TERM
 =  20.71    (WHEN MIN. R.F.=1)  AT K=  17, I=   1, J=  91

 MAXIMUM STEPSIZE WHICH MEETS STABILITY CRITERION OF THE DISPERSION TERM
 =  6.718    (WHEN MIN. R.F.=1)  AT K=  16, I=   1, J=  89
     1 CALLS TO GCG PACKAGE FOR TRANSPORT TIME STEP 102 IN FLOW TIME STEP   1 STRESS PERIOD   1
     4 TOTAL ITERATIONS
0WARNING: NUMERICAL OSCILLATION ENCOUNTERED
 ONE OR MORE CELL CONCENTRATIONS LESS THAN CRHOREF
 SMALLEST DENSITY =  0.100E+04
 AT CELL (I,J,K) = (   1,  68,   6)

 
 SOLVING FOR HEAD 


     2 CALLS TO PCG ROUTINE FOR TIME STEP   1 IN STRESS PERIOD    1
     7 TOTAL ITERATIONS

 MAXIMUM HEAD CHANGE FOR EACH ITERATION (1 INDICATES THE FIRST INNER ITERATION):

    HEAD CHANGE    HEAD CHANGE    HEAD CHANGE    HEAD CHANGE    HEAD CHANGE 
   LAYER,ROW,COL  LAYER,ROW,COL  LAYER,ROW,COL  LAYER,ROW,COL  LAYER,ROW,COL
 ---------------------------------------------------------------------------
  1 -0.4181E-02  0 -0.3382E-02  0  0.3802E-02  0 -0.1927E-02  0 -0.1469E-02
   ( 23,  1, 72)  (  9,  1, 12)  ( 11,  1, 65)  ( 11,  1, 63)  ( 11,  1, 70)
  0 -0.6349E-03  1  0.4271E-03
   ( 11,  1, 71)  ( 11,  1, 70)

 MAXIMUM RESIDUAL FOR EACH ITERATION (1 INDICATES THE FIRST INNER ITERATION):

    RESIDUAL       RESIDUAL       RESIDUAL       RESIDUAL       RESIDUAL    
   LAYER,ROW,COL  LAYER,ROW,COL  LAYER,ROW,COL  LAYER,ROW,COL  LAYER,ROW,COL
 ---------------------------------------------------------------------------
  1 -0.4559E+05  0 -0.3787E+05  0   2012.      0   1526.      0   1167.    
   ( 22,  1, 58)  ( 22,  1, 58)  ( 21,  1, 57)  ( 21,  1, 57)  ( 21,  1, 57)
  0   610.5      1   534.4    
   ( 21,  1, 57)  ( 21,  1, 57)


 FLOW MODEL IS TRANSIENT
 FLOW MODEL CONTAINS CONSTANT-HEAD CELLS


 MAXIMUM STEPSIZE DURING WHICH ANY PARTICLE CANNOT MOVE MORE THAN ONE CELL
 =  25.38    (WHEN MIN. R.F.=1)  AT K=  18, I=   1, J=  91

 MAXIMUM STEPSIZE WHICH MEETS STABILITY CRITERION OF THE ADVECTION TERM
 (FOR PURE FINITE-DIFFERENCE OPTION, MIXELM=0) 
 =  14.09    (WHEN MIN. R.F.=1)  AT K=  16, I=   1, J=  90


 TOTAL NUMBER OF POINT SOURCES/SINKS PRESENT IN THE FLOW MODEL =    30

 MAXIMUM STEPSIZE WHICH MEETS STABILITY CRITERION OF THE SINK & SOURCE TERM
 =  20.45    (WHEN MIN. R.F.=1)  AT K=  17, I=   1, J=  91

 MAXIMUM STEPSIZE WHICH MEETS STABILITY CRITERION OF THE DISPERSION TERM
 =  6.676    (WHEN MIN. R.F.=1)  AT K=  16, I=   1, J=  89
     1 CALLS TO GCG PACKAGE FOR TRANSPORT TIME STEP 103 IN FLOW TIME STEP   1 STRESS PERIOD   1
     4 TOTAL ITERATIONS
0WARNING: NUMERICAL OSCILLATION ENCOUNTERED
 ONE OR MORE CELL CONCENTRATIONS LESS THAN CRHOREF
 SMALLEST DENSITY =  0.100E+04
 AT CELL (I,J,K) = (   1,  68,   6)

 
 SOLVING FOR HEAD 


     2 CALLS TO PCG ROUTINE FOR TIME STEP   1 IN STRESS PERIOD    1
     7 TOTAL ITERATIONS

 MAXIMUM HEAD CHANGE FOR EACH ITERATION (1 INDICATES THE FIRST INNER ITERATION):

    HEAD CHANGE    HEAD CHANGE    HEAD CHANGE    HEAD CHANGE    HEAD CHANGE 
   LAYER,ROW,COL  LAYER,ROW,COL  LAYER,ROW,COL  LAYER,ROW,COL  LAYER,ROW,COL
 ---------------------------------------------------------------------------
  1 -0.4085E-02  0 -0.3316E-02  0  0.3678E-02  0 -0.1871E-02  0 -0.1426E-02
   ( 23,  1, 72)  (  9,  1, 12)  ( 11,  1, 65)  ( 11,  1, 63)  ( 11,  1, 70)
  0 -0.6189E-03  1  0.4240E-03
   ( 11,  1, 71)  ( 11,  1, 70)

 MAXIMUM RESIDUAL FOR EACH ITERATION (1 INDICATES THE FIRST INNER ITERATION):

    RESIDUAL       RESIDUAL       RESIDUAL       RESIDUAL       RESIDUAL    
   LAYER,ROW,COL  LAYER,ROW,COL  LAYER,ROW,COL  LAYER,ROW,COL  LAYER,ROW,COL
 ---------------------------------------------------------------------------
  1 -0.4458E+05  0 -0.3696E+05  0   2018.      0   1539.      0   1181.    
   ( 22,  1, 58)  ( 22,  1, 58)  ( 21,  1, 57)  ( 21,  1, 57)  ( 21,  1, 57)
  0   612.8      1   524.1    
   ( 21,  1, 57)  ( 21,  1, 57)


 FLOW MODEL IS TRANSIENT
 FLOW MODEL CONTAINS CONSTANT-HEAD CELLS


 MAXIMUM STEPSIZE DURING WHICH ANY PARTICLE CANNOT MOVE MORE THAN ONE CELL
 =  25.10    (WHEN MIN. R.F.=1)  AT K=  18, I=   1, J=  91

 MAXIMUM STEPSIZE WHICH MEETS STABILITY CRITERION OF THE ADVECTION TERM
 (FOR PURE FINITE-DIFFERENCE OPTION, MIXELM=0) 
 =  13.93    (WHEN MIN. R.F.=1)  AT K=  16, I=   1, J=  90


 TOTAL NUMBER OF POINT SOURCES/SINKS PRESENT IN THE FLOW MODEL =    30

 MAXIMUM STEPSIZE WHICH MEETS STABILITY CRITERION OF THE SINK & SOURCE TERM
 =  20.22    (WHEN MIN. R.F.=1)  AT K=  17, I=   1, J=  91

 MAXIMUM STEPSIZE WHICH MEETS STABILITY CRITERION OF THE DISPERSION TERM
 =  6.635    (WHEN MIN. R.F.=1)  AT K=  16, I=   1, J=  89
     1 CALLS TO GCG PACKAGE FOR TRANSPORT TIME STEP 104 IN FLOW TIME STEP   1 STRESS PERIOD   1
     4 TOTAL ITERATIONS
0WARNING: NUMERICAL OSCILLATION ENCOUNTERED
 ONE OR MORE CELL CONCENTRATIONS LESS THAN CRHOREF
 SMALLEST DENSITY =  0.100E+04
 AT CELL (I,J,K) = (   1,  68,   6)

 
 SOLVING FOR HEAD 


     2 CALLS TO PCG ROUTINE FOR TIME STEP   1 IN STRESS PERIOD    1
     7 TOTAL ITERATIONS

 MAXIMUM HEAD CHANGE FOR EACH ITERATION (1 INDICATES THE FIRST INNER ITERATION):

    HEAD CHANGE    HEAD CHANGE    HEAD CHANGE    HEAD CHANGE    HEAD CHANGE 
   LAYER,ROW,COL  LAYER,ROW,COL  LAYER,ROW,COL  LAYER,ROW,COL  LAYER,ROW,COL
 ---------------------------------------------------------------------------
  1 -0.3998E-02  0 -0.3254E-02  0  0.3566E-02  0 -0.1824E-02  0 -0.1404E-02
   ( 23,  1, 72)  (  9,  1, 12)  ( 11,  1, 65)  ( 11,  1, 63)  ( 11,  1, 70)
  0 -0.6068E-03  1  0.4265E-03
   ( 11,  1, 71)  ( 11,  1, 70)

 MAXIMUM RESIDUAL FOR EACH ITERATION (1 INDICATES THE FIRST INNER ITERATION):

    RESIDUAL       RESIDUAL       RESIDUAL       RESIDUAL       RESIDUAL    
   LAYER,ROW,COL  LAYER,ROW,COL  LAYER,ROW,COL  LAYER,ROW,COL  LAYER,ROW,COL
 ---------------------------------------------------------------------------
  1 -0.4355E+05  0 -0.3604E+05  0   2020.      0   1546.      0   1184.    
   ( 22,  1, 58)  ( 22,  1, 58)  ( 21,  1, 57)  ( 21,  1, 57)  ( 21,  1, 57)
  0   603.4      1   515.1    
   ( 21,  1, 57)  ( 21,  1, 57)


 FLOW MODEL IS TRANSIENT
 FLOW MODEL CONTAINS CONSTANT-HEAD CELLS


 MAXIMUM STEPSIZE DURING WHICH ANY PARTICLE CANNOT MOVE MORE THAN ONE CELL
 =  24.80    (WHEN MIN. R.F.=1)  AT K=  18, I=   1, J=  91

 MAXIMUM STEPSIZE WHICH MEETS STABILITY CRITERION OF THE ADVECTION TERM
 (FOR PURE FINITE-DIFFERENCE OPTION, MIXELM=0) 
 =  13.77    (WHEN MIN. R.F.=1)  AT K=  16, I=   1, J=  90


 TOTAL NUMBER OF POINT SOURCES/SINKS PRESENT IN THE FLOW MODEL =    30

 MAXIMUM STEPSIZE WHICH MEETS STABILITY CRITERION OF THE SINK & SOURCE TERM
 =  19.98    (WHEN MIN. R.F.=1)  AT K=  17, I=   1, J=  91

 MAXIMUM STEPSIZE WHICH MEETS STABILITY CRITERION OF THE DISPERSION TERM
 =  6.596    (WHEN MIN. R.F.=1)  AT K=  16, I=   1, J=  89
     1 CALLS TO GCG PACKAGE FOR TRANSPORT TIME STEP 105 IN FLOW TIME STEP   1 STRESS PERIOD   1
     4 TOTAL ITERATIONS
  MAXIMUM CONCENTRATION CHANGES FOR EACH ITERATION:
  MAX. CHANGE LAYER,ROW,COL MAX. CHANGE LAYER,ROW,COL MAX. CHANGE LAYER,ROW,COL MAX. CHANGE LAYER,ROW,COL MAX. CHANGE LAYER,ROW,COL
 ------------------------------------------------------------------------------------------------------------------------------------
   0.3343     ( 16,  1, 90)  0.8034E-03 ( 17,  1, 89)  0.2214E-04 ( 16,  1, 89)  0.1461E-06 ( 17,  1, 88)
0WARNING: NUMERICAL OSCILLATION ENCOUNTERED
 ONE OR MORE CELL CONCENTRATIONS LESS THAN CRHOREF
 SMALLEST DENSITY =  0.100E+04
 AT CELL (I,J,K) = (   1,  68,   6)

 
 SOLVING FOR HEAD 


     2 CALLS TO PCG ROUTINE FOR TIME STEP   1 IN STRESS PERIOD    1
     7 TOTAL ITERATIONS

 MAXIMUM HEAD CHANGE FOR EACH ITERATION (1 INDICATES THE FIRST INNER ITERATION):

    HEAD CHANGE    HEAD CHANGE    HEAD CHANGE    HEAD CHANGE    HEAD CHANGE 
   LAYER,ROW,COL  LAYER,ROW,COL  LAYER,ROW,COL  LAYER,ROW,COL  LAYER,ROW,COL
 ---------------------------------------------------------------------------
  1 -0.3916E-02  0 -0.3196E-02  0  0.3458E-02  0 -0.1783E-02  0 -0.1384E-02
   ( 23,  1, 72)  (  9,  1, 12)  ( 11,  1, 65)  ( 11,  1, 63)  ( 11,  1, 70)
  0 -0.5975E-03  1  0.4288E-03
   ( 11,  1, 71)  ( 11,  1, 70)

 MAXIMUM RESIDUAL FOR EACH ITERATION (1 INDICATES THE FIRST INNER ITERATION):

    RESIDUAL       RESIDUAL       RESIDUAL       RESIDUAL       RESIDUAL    
   LAYER,ROW,COL  LAYER,ROW,COL  LAYER,ROW,COL  LAYER,ROW,COL  LAYER,ROW,COL
 ---------------------------------------------------------------------------
  1 -0.4246E+05  0 -0.3508E+05  0   2010.      0   1543.      0   1179.    
   ( 22,  1, 58)  ( 22,  1, 58)  ( 21,  1, 57)  ( 21,  1, 57)  ( 21,  1, 57)
  0   590.6      1   503.3    
   ( 21,  1, 57)  ( 21,  1, 57)


 FLOW MODEL IS TRANSIENT
 FLOW MODEL CONTAINS CONSTANT-HEAD CELLS


 MAXIMUM STEPSIZE DURING WHICH ANY PARTICLE CANNOT MOVE MORE THAN ONE CELL
 =  24.51    (WHEN MIN. R.F.=1)  AT K=  18, I=   1, J=  91

 MAXIMUM STEPSIZE WHICH MEETS STABILITY CRITERION OF THE ADVECTION TERM
 (FOR PURE FINITE-DIFFERENCE OPTION, MIXELM=0) 
 =  13.61    (WHEN MIN. R.F.=1)  AT K=  16, I=   1, J=  90


 TOTAL NUMBER OF POINT SOURCES/SINKS PRESENT IN THE FLOW MODEL =    30

 MAXIMUM STEPSIZE WHICH MEETS STABILITY CRITERION OF THE SINK & SOURCE TERM
 =  19.75    (WHEN MIN. R.F.=1)  AT K=  17, I=   1, J=  91

 MAXIMUM STEPSIZE WHICH MEETS STABILITY CRITERION OF THE DISPERSION TERM
 =  6.559    (WHEN MIN. R.F.=1)  AT K=  16, I=   1, J=  89
     1 CALLS TO GCG PACKAGE FOR TRANSPORT TIME STEP 106 IN FLOW TIME STEP   1 STRESS PERIOD   1
     4 TOTAL ITERATIONS
0WARNING: NUMERICAL OSCILLATION ENCOUNTERED
 ONE OR MORE CELL CONCENTRATIONS LESS THAN CRHOREF
 SMALLEST DENSITY =  0.100E+04
 AT CELL (I,J,K) = (   1,  68,   6)

 
 SOLVING FOR HEAD 


     2 CALLS TO PCG ROUTINE FOR TIME STEP   1 IN STRESS PERIOD    1
     7 TOTAL ITERATIONS

 MAXIMUM HEAD CHANGE FOR EACH ITERATION (1 INDICATES THE FIRST INNER ITERATION):

    HEAD CHANGE    HEAD CHANGE    HEAD CHANGE    HEAD CHANGE    HEAD CHANGE 
   LAYER,ROW,COL  LAYER,ROW,COL  LAYER,ROW,COL  LAYER,ROW,COL  LAYER,ROW,COL
 ---------------------------------------------------------------------------
  1 -0.3837E-02  0 -0.3141E-02  0  0.3354E-02  0 -0.1740E-02  0 -0.1350E-02
   ( 23,  1, 72)  (  9,  1, 12)  ( 11,  1, 65)  ( 11,  1, 63)  ( 11,  1, 70)
  0 -0.5872E-03  1  0.4264E-03
   ( 11,  1, 71)  ( 11,  1, 70)

 MAXIMUM RESIDUAL FOR EACH ITERATION (1 INDICATES THE FIRST INNER ITERATION):

    RESIDUAL       RESIDUAL       RESIDUAL       RESIDUAL       RESIDUAL    
   LAYER,ROW,COL  LAYER,ROW,COL  LAYER,ROW,COL  LAYER,ROW,COL  LAYER,ROW,COL
 ---------------------------------------------------------------------------
  1 -0.4129E+05  0 -0.3405E+05  0   1984.      0   1525.      0   1167.    
   ( 22,  1, 58)  ( 22,  1, 58)  ( 21,  1, 57)  ( 21,  1, 57)  ( 21,  1, 57)
  0   580.3      1   493.4    
   ( 21,  1, 57)  ( 21,  1, 57)


 FLOW MODEL IS TRANSIENT
 FLOW MODEL CONTAINS CONSTANT-HEAD CELLS


 MAXIMUM STEPSIZE DURING WHICH ANY PARTICLE CANNOT MOVE MORE THAN ONE CELL
 =  24.22    (WHEN MIN. R.F.=1)  AT K=  18, I=   1, J=  91

 MAXIMUM STEPSIZE WHICH MEETS STABILITY CRITERION OF THE ADVECTION TERM
 (FOR PURE FINITE-DIFFERENCE OPTION, MIXELM=0) 
 =  13.47    (WHEN MIN. R.F.=1)  AT K=  16, I=   1, J=  90


 TOTAL NUMBER OF POINT SOURCES/SINKS PRESENT IN THE FLOW MODEL =    30

 MAXIMUM STEPSIZE WHICH MEETS STABILITY CRITERION OF THE SINK & SOURCE TERM
 =  19.53    (WHEN MIN. R.F.=1)  AT K=  17, I=   1, J=  91

 MAXIMUM STEPSIZE WHICH MEETS STABILITY CRITERION OF THE DISPERSION TERM
 =  6.523    (WHEN MIN. R.F.=1)  AT K=  16, I=   1, J=  89
     1 CALLS TO GCG PACKAGE FOR TRANSPORT TIME STEP 107 IN FLOW TIME STEP   1 STRESS PERIOD   1
     4 TOTAL ITERATIONS
0WARNING: NUMERICAL OSCILLATION ENCOUNTERED
 ONE OR MORE CELL CONCENTRATIONS LESS THAN CRHOREF
 SMALLEST DENSITY =  0.100E+04
 AT CELL (I,J,K) = (   1,  68,   6)

 
 SOLVING FOR HEAD 


     2 CALLS TO PCG ROUTINE FOR TIME STEP   1 IN STRESS PERIOD    1
     7 TOTAL ITERATIONS

 MAXIMUM HEAD CHANGE FOR EACH ITERATION (1 INDICATES THE FIRST INNER ITERATION):

    HEAD CHANGE    HEAD CHANGE    HEAD CHANGE    HEAD CHANGE    HEAD CHANGE 
   LAYER,ROW,COL  LAYER,ROW,COL  LAYER,ROW,COL  LAYER,ROW,COL  LAYER,ROW,COL
 ---------------------------------------------------------------------------
  1 -0.3760E-02  0 -0.3090E-02  0  0.3257E-02  0 -0.1695E-02  0 -0.1305E-02
   ( 23,  1, 72)  (  9,  1, 12)  ( 11,  1, 65)  ( 11,  1, 63)  ( 11,  1, 70)
  0 -0.5751E-03  1  0.4210E-03
   ( 11,  1, 71)  ( 11,  1, 70)

 MAXIMUM RESIDUAL FOR EACH ITERATION (1 INDICATES THE FIRST INNER ITERATION):

    RESIDUAL       RESIDUAL       RESIDUAL       RESIDUAL       RESIDUAL    
   LAYER,ROW,COL  LAYER,ROW,COL  LAYER,ROW,COL  LAYER,ROW,COL  LAYER,ROW,COL
 ---------------------------------------------------------------------------
  1 -0.4002E+05  0 -0.3292E+05  0   1955.      0   1508.      0   1158.    
   ( 22,  1, 58)  ( 22,  1, 58)  ( 21,  1, 57)  ( 21,  1, 57)  ( 21,  1, 57)
  0   574.8      1   487.7    
   ( 21,  1, 57)  ( 21,  1, 57)


 FLOW MODEL IS TRANSIENT
 FLOW MODEL CONTAINS CONSTANT-HEAD CELLS


 MAXIMUM STEPSIZE DURING WHICH ANY PARTICLE CANNOT MOVE MORE THAN ONE CELL
 =  23.95    (WHEN MIN. R.F.=1)  AT K=  18, I=   1, J=  91

 MAXIMUM STEPSIZE WHICH MEETS STABILITY CRITERION OF THE ADVECTION TERM
 (FOR PURE FINITE-DIFFERENCE OPTION, MIXELM=0) 
 =  13.33    (WHEN MIN. R.F.=1)  AT K=  16, I=   1, J=  90


 TOTAL NUMBER OF POINT SOURCES/SINKS PRESENT IN THE FLOW MODEL =    30

 MAXIMUM STEPSIZE WHICH MEETS STABILITY CRITERION OF THE SINK & SOURCE TERM
 =  19.32    (WHEN MIN. R.F.=1)  AT K=  17, I=   1, J=  91

 MAXIMUM STEPSIZE WHICH MEETS STABILITY CRITERION OF THE DISPERSION TERM
 =  6.488    (WHEN MIN. R.F.=1)  AT K=  16, I=   1, J=  89
     1 CALLS TO GCG PACKAGE FOR TRANSPORT TIME STEP 108 IN FLOW TIME STEP   1 STRESS PERIOD   1
     4 TOTAL ITERATIONS
0WARNING: NUMERICAL OSCILLATION ENCOUNTERED
 ONE OR MORE CELL CONCENTRATIONS LESS THAN CRHOREF
 SMALLEST DENSITY =  0.100E+04
 AT CELL (I,J,K) = (   1,  68,   6)

 
 SOLVING FOR HEAD 


     2 CALLS TO PCG ROUTINE FOR TIME STEP   1 IN STRESS PERIOD    1
     7 TOTAL ITERATIONS

 MAXIMUM HEAD CHANGE FOR EACH ITERATION (1 INDICATES THE FIRST INNER ITERATION):

    HEAD CHANGE    HEAD CHANGE    HEAD CHANGE    HEAD CHANGE    HEAD CHANGE 
   LAYER,ROW,COL  LAYER,ROW,COL  LAYER,ROW,COL  LAYER,ROW,COL  LAYER,ROW,COL
 ---------------------------------------------------------------------------
  1 -0.3687E-02  0 -0.3040E-02  0  0.3167E-02  0 -0.1652E-02  0 -0.1267E-02
   ( 23,  1, 72)  (  9,  1, 12)  ( 11,  1, 65)  ( 11,  1, 63)  ( 11,  1, 70)
  0 -0.5618E-03  1  0.4167E-03
   ( 11,  1, 71)  ( 11,  1, 70)

 MAXIMUM RESIDUAL FOR EACH ITERATION (1 INDICATES THE FIRST INNER ITERATION):

    RESIDUAL       RESIDUAL       RESIDUAL       RESIDUAL       RESIDUAL    
   LAYER,ROW,COL  LAYER,ROW,COL  LAYER,ROW,COL  LAYER,ROW,COL  LAYER,ROW,COL
 ---------------------------------------------------------------------------
  1 -0.3861E+05  0 -0.3169E+05  0   1892.      0   1460.      0   1123.    
   ( 22,  1, 58)  ( 22,  1, 58)  ( 21,  1, 57)  ( 21,  1, 57)  ( 21,  1, 57)
  0   555.3      1   470.0    
   ( 21,  1, 57)  ( 21,  1, 57)


 FLOW MODEL IS TRANSIENT
 FLOW MODEL CONTAINS CONSTANT-HEAD CELLS


 MAXIMUM STEPSIZE DURING WHICH ANY PARTICLE CANNOT MOVE MORE THAN ONE CELL
 =  23.70    (WHEN MIN. R.F.=1)  AT K=  18, I=   1, J=  91

 MAXIMUM STEPSIZE WHICH MEETS STABILITY CRITERION OF THE ADVECTION TERM
 (FOR PURE FINITE-DIFFERENCE OPTION, MIXELM=0) 
 =  13.20    (WHEN MIN. R.F.=1)  AT K=  16, I=   1, J=  90


 TOTAL NUMBER OF POINT SOURCES/SINKS PRESENT IN THE FLOW MODEL =    30

 MAXIMUM STEPSIZE WHICH MEETS STABILITY CRITERION OF THE SINK & SOURCE TERM
 =  19.12    (WHEN MIN. R.F.=1)  AT K=  17, I=   1, J=  91

 MAXIMUM STEPSIZE WHICH MEETS STABILITY CRITERION OF THE DISPERSION TERM
 =  6.454    (WHEN MIN. R.F.=1)  AT K=  16, I=   1, J=  89
     1 CALLS TO GCG PACKAGE FOR TRANSPORT TIME STEP 109 IN FLOW TIME STEP   1 STRESS PERIOD   1
     4 TOTAL ITERATIONS
0WARNING: NUMERICAL OSCILLATION ENCOUNTERED
 ONE OR MORE CELL CONCENTRATIONS LESS THAN CRHOREF
 SMALLEST DENSITY =  0.100E+04
 AT CELL (I,J,K) = (   1,  68,   6)

 
 SOLVING FOR HEAD 


     2 CALLS TO PCG ROUTINE FOR TIME STEP   1 IN STRESS PERIOD    1
     7 TOTAL ITERATIONS

 MAXIMUM HEAD CHANGE FOR EACH ITERATION (1 INDICATES THE FIRST INNER ITERATION):

    HEAD CHANGE    HEAD CHANGE    HEAD CHANGE    HEAD CHANGE    HEAD CHANGE 
   LAYER,ROW,COL  LAYER,ROW,COL  LAYER,ROW,COL  LAYER,ROW,COL  LAYER,ROW,COL
 ---------------------------------------------------------------------------
  1 -0.3617E-02  0 -0.2993E-02  0  0.3083E-02  0 -0.1611E-02  0 -0.1230E-02
   ( 23,  1, 72)  (  9,  1, 12)  ( 11,  1, 65)  ( 11,  1, 63)  ( 11,  1, 70)
  0 -0.5489E-03  1  0.4118E-03
   ( 11,  1, 71)  ( 11,  1, 70)

 MAXIMUM RESIDUAL FOR EACH ITERATION (1 INDICATES THE FIRST INNER ITERATION):

    RESIDUAL       RESIDUAL       RESIDUAL       RESIDUAL       RESIDUAL    
   LAYER,ROW,COL  LAYER,ROW,COL  LAYER,ROW,COL  LAYER,ROW,COL  LAYER,ROW,COL
 ---------------------------------------------------------------------------
  1 -0.3705E+05  0 -0.3035E+05  0   1820.      0   1403.      0   1081.    
   ( 22,  1, 58)  ( 22,  1, 58)  ( 21,  1, 57)  ( 21,  1, 57)  ( 21,  1, 57)
  0   533.1      1   450.1    
   ( 21,  1, 57)  ( 21,  1, 57)


 FLOW MODEL IS TRANSIENT
 FLOW MODEL CONTAINS CONSTANT-HEAD CELLS


 MAXIMUM STEPSIZE DURING WHICH ANY PARTICLE CANNOT MOVE MORE THAN ONE CELL
 =  23.45    (WHEN MIN. R.F.=1)  AT K=  18, I=   1, J=  91

 MAXIMUM STEPSIZE WHICH MEETS STABILITY CRITERION OF THE ADVECTION TERM
 (FOR PURE FINITE-DIFFERENCE OPTION, MIXELM=0) 
 =  13.08    (WHEN MIN. R.F.=1)  AT K=  16, I=   1, J=  90


 TOTAL NUMBER OF POINT SOURCES/SINKS PRESENT IN THE FLOW MODEL =    30

 MAXIMUM STEPSIZE WHICH MEETS STABILITY CRITERION OF THE SINK & SOURCE TERM
 =  18.93    (WHEN MIN. R.F.=1)  AT K=  17, I=   1, J=  91

 MAXIMUM STEPSIZE WHICH MEETS STABILITY CRITERION OF THE DISPERSION TERM
 =  6.421    (WHEN MIN. R.F.=1)  AT K=  16, I=   1, J=  89
     1 CALLS TO GCG PACKAGE FOR TRANSPORT TIME STEP 110 IN FLOW TIME STEP   1 STRESS PERIOD   1
     4 TOTAL ITERATIONS
  MAXIMUM CONCENTRATION CHANGES FOR EACH ITERATION:
  MAX. CHANGE LAYER,ROW,COL MAX. CHANGE LAYER,ROW,COL MAX. CHANGE LAYER,ROW,COL MAX. CHANGE LAYER,ROW,COL MAX. CHANGE LAYER,ROW,COL
 ------------------------------------------------------------------------------------------------------------------------------------
   0.3336     ( 16,  1, 90)  0.7827E-03 ( 17,  1, 89)  0.2063E-04 ( 16,  1, 89)  0.1392E-06 ( 17,  1, 88)



 >>>>>>>>>>>>>>>>>>>>>>>>>>>>>>>>>>>>>>>>>>>>>>>>>>>>>>>FOR COMPONENT NO. 01<<<<<<<<<<<<<<<<<<<<<<<<<<<<<<<<<<<<<<<<<<<<<<<<<<<<<<<


                                            -------------------------------------------
                                                      TRANSPORT STEP NO.  110
                                            -------------------------------------------

 TOTAL ELAPSED TIME SINCE BEGINNING OF SIMULATION =   995.3576    D   
 .....................................................................

                     CUMMULATIVE MASS BUDGETS AT END OF TRANSPORT STEP  110, TIME STEP    1, STRESS PERIOD    1
                     ------------------------------------------------------------------------------------------

                                                             IN                           OUT
                                                      ----------------             ----------------
                               CONSTANT CONCENTRATION:    0.000000                    0.000000    
                                        CONSTANT HEAD:    7763073.                  -0.1094519E+08
                                             RECHARGE:    0.000000                    0.000000    
                                MASS STORAGE (SOLUTE):   0.2300837E+08              -0.1982625E+08
                            ---------------------------------------------------------------------------
                                              [TOTAL]:   0.3077258E+08 KG           -0.3077258E+08 KG  

                                                          NET (IN - OUT):    1.023513    
                                                   DISCREPANCY (PERCENT):   0.3326056E-05
0WARNING: NUMERICAL OSCILLATION ENCOUNTERED
 ONE OR MORE CELL CONCENTRATIONS LESS THAN CRHOREF
 SMALLEST DENSITY =  0.100E+04
 AT CELL (I,J,K) = (   1,  68,   6)

 
 SOLVING FOR HEAD 


     2 CALLS TO PCG ROUTINE FOR TIME STEP   1 IN STRESS PERIOD    1
     7 TOTAL ITERATIONS

 MAXIMUM HEAD CHANGE FOR EACH ITERATION (1 INDICATES THE FIRST INNER ITERATION):

    HEAD CHANGE    HEAD CHANGE    HEAD CHANGE    HEAD CHANGE    HEAD CHANGE 
   LAYER,ROW,COL  LAYER,ROW,COL  LAYER,ROW,COL  LAYER,ROW,COL  LAYER,ROW,COL
 ---------------------------------------------------------------------------
  1 -0.3551E-02  0 -0.2949E-02  0  0.3003E-02  0 -0.1572E-02  0 -0.1192E-02
   ( 23,  1, 72)  (  9,  1, 12)  ( 11,  1, 65)  ( 11,  1, 63)  ( 11,  1, 70)
  0 -0.5363E-03  1  0.4060E-03
   ( 11,  1, 71)  ( 11,  1, 70)

 MAXIMUM RESIDUAL FOR EACH ITERATION (1 INDICATES THE FIRST INNER ITERATION):

    RESIDUAL       RESIDUAL       RESIDUAL       RESIDUAL       RESIDUAL    
   LAYER,ROW,COL  LAYER,ROW,COL  LAYER,ROW,COL  LAYER,ROW,COL  LAYER,ROW,COL
 ---------------------------------------------------------------------------
  1 -0.3532E+05  0 -0.2887E+05  0   1736.      0   1336.      0   1033.    
   ( 22,  1, 58)  ( 22,  1, 58)  ( 21,  1, 57)  ( 21,  1, 57)  ( 21,  1, 57)
  0   509.1      1   428.9    
   ( 21,  1, 57)  ( 21,  1, 57)


 FLOW MODEL IS TRANSIENT
 FLOW MODEL CONTAINS CONSTANT-HEAD CELLS


 MAXIMUM STEPSIZE DURING WHICH ANY PARTICLE CANNOT MOVE MORE THAN ONE CELL
 =  23.22    (WHEN MIN. R.F.=1)  AT K=  18, I=   1, J=  91

 MAXIMUM STEPSIZE WHICH MEETS STABILITY CRITERION OF THE ADVECTION TERM
 (FOR PURE FINITE-DIFFERENCE OPTION, MIXELM=0) 
 =  12.97    (WHEN MIN. R.F.=1)  AT K=  16, I=   1, J=  90


 TOTAL NUMBER OF POINT SOURCES/SINKS PRESENT IN THE FLOW MODEL =    30

 MAXIMUM STEPSIZE WHICH MEETS STABILITY CRITERION OF THE SINK & SOURCE TERM
 =  18.75    (WHEN MIN. R.F.=1)  AT K=  17, I=   1, J=  91

 MAXIMUM STEPSIZE WHICH MEETS STABILITY CRITERION OF THE DISPERSION TERM
 =  6.389    (WHEN MIN. R.F.=1)  AT K=  16, I=   1, J=  89
     1 CALLS TO GCG PACKAGE FOR TRANSPORT TIME STEP 111 IN FLOW TIME STEP   1 STRESS PERIOD   1
     4 TOTAL ITERATIONS
0WARNING: NUMERICAL OSCILLATION ENCOUNTERED
 ONE OR MORE CELL CONCENTRATIONS LESS THAN CRHOREF
 SMALLEST DENSITY =  0.100E+04
 AT CELL (I,J,K) = (   1,  68,   6)

 
 SOLVING FOR HEAD 


     2 CALLS TO PCG ROUTINE FOR TIME STEP   1 IN STRESS PERIOD    1
     7 TOTAL ITERATIONS

 MAXIMUM HEAD CHANGE FOR EACH ITERATION (1 INDICATES THE FIRST INNER ITERATION):

    HEAD CHANGE    HEAD CHANGE    HEAD CHANGE    HEAD CHANGE    HEAD CHANGE 
   LAYER,ROW,COL  LAYER,ROW,COL  LAYER,ROW,COL  LAYER,ROW,COL  LAYER,ROW,COL
 ---------------------------------------------------------------------------
  1 -0.3487E-02  0 -0.2907E-02  0  0.2928E-02  0 -0.1534E-02  0 -0.1152E-02
   ( 23,  1, 72)  (  9,  1, 12)  ( 11,  1, 65)  ( 11,  1, 63)  ( 11,  1, 70)
  0 -0.5235E-03  1  0.3990E-03
   ( 11,  1, 71)  ( 11,  1, 70)

 MAXIMUM RESIDUAL FOR EACH ITERATION (1 INDICATES THE FIRST INNER ITERATION):

    RESIDUAL       RESIDUAL       RESIDUAL       RESIDUAL       RESIDUAL    
   LAYER,ROW,COL  LAYER,ROW,COL  LAYER,ROW,COL  LAYER,ROW,COL  LAYER,ROW,COL
 ---------------------------------------------------------------------------
  1 -0.3355E+05  0 -0.2734E+05  0   1645.      0   1264.      0   980.4    
   ( 22,  1, 58)  ( 22,  1, 58)  ( 21,  1, 57)  ( 21,  1, 57)  ( 21,  1, 57)
  0  -519.7      1  -451.7    
   ( 19,  1, 83)  ( 19,  1, 83)


 FLOW MODEL IS TRANSIENT
 FLOW MODEL CONTAINS CONSTANT-HEAD CELLS


 MAXIMUM STEPSIZE DURING WHICH ANY PARTICLE CANNOT MOVE MORE THAN ONE CELL
 =  23.00    (WHEN MIN. R.F.=1)  AT K=  18, I=   1, J=  91

 MAXIMUM STEPSIZE WHICH MEETS STABILITY CRITERION OF THE ADVECTION TERM
 (FOR PURE FINITE-DIFFERENCE OPTION, MIXELM=0) 
 =  12.86    (WHEN MIN. R.F.=1)  AT K=  16, I=   1, J=  90


 TOTAL NUMBER OF POINT SOURCES/SINKS PRESENT IN THE FLOW MODEL =    30

 MAXIMUM STEPSIZE WHICH MEETS STABILITY CRITERION OF THE SINK & SOURCE TERM
 =  18.59    (WHEN MIN. R.F.=1)  AT K=  17, I=   1, J=  91

 MAXIMUM STEPSIZE WHICH MEETS STABILITY CRITERION OF THE DISPERSION TERM
 =  6.357    (WHEN MIN. R.F.=1)  AT K=  16, I=   1, J=  89
     1 CALLS TO GCG PACKAGE FOR TRANSPORT TIME STEP 112 IN FLOW TIME STEP   1 STRESS PERIOD   1
     4 TOTAL ITERATIONS
0WARNING: NUMERICAL OSCILLATION ENCOUNTERED
 ONE OR MORE CELL CONCENTRATIONS LESS THAN CRHOREF
 SMALLEST DENSITY =  0.100E+04
 AT CELL (I,J,K) = (   1,  68,   6)

 
 SOLVING FOR HEAD 


     2 CALLS TO PCG ROUTINE FOR TIME STEP   1 IN STRESS PERIOD    1
     7 TOTAL ITERATIONS

 MAXIMUM HEAD CHANGE FOR EACH ITERATION (1 INDICATES THE FIRST INNER ITERATION):

    HEAD CHANGE    HEAD CHANGE    HEAD CHANGE    HEAD CHANGE    HEAD CHANGE 
   LAYER,ROW,COL  LAYER,ROW,COL  LAYER,ROW,COL  LAYER,ROW,COL  LAYER,ROW,COL
 ---------------------------------------------------------------------------
  1 -0.3428E-02  0 -0.2868E-02  0  0.2858E-02  0 -0.1497E-02  0 -0.1117E-02
   ( 23,  1, 72)  (  9,  1, 12)  ( 11,  1, 65)  ( 11,  1, 63)  ( 11,  1, 70)
  0 -0.5113E-03  1  0.3936E-03
   ( 11,  1, 71)  ( 11,  1, 70)

 MAXIMUM RESIDUAL FOR EACH ITERATION (1 INDICATES THE FIRST INNER ITERATION):

    RESIDUAL       RESIDUAL       RESIDUAL       RESIDUAL       RESIDUAL    
   LAYER,ROW,COL  LAYER,ROW,COL  LAYER,ROW,COL  LAYER,ROW,COL  LAYER,ROW,COL
 ---------------------------------------------------------------------------
  1 -0.3242E+05  0 -0.2629E+05  0   1560.      0  -1202.      0  -985.2    
   ( 22,  1, 57)  ( 22,  1, 57)  ( 21,  1, 57)  ( 19,  1, 83)  ( 19,  1, 83)
  0  -542.1      1  -472.4    
   ( 19,  1, 83)  ( 19,  1, 83)


 FLOW MODEL IS TRANSIENT
 FLOW MODEL CONTAINS CONSTANT-HEAD CELLS


 MAXIMUM STEPSIZE DURING WHICH ANY PARTICLE CANNOT MOVE MORE THAN ONE CELL
 =  22.80    (WHEN MIN. R.F.=1)  AT K=  18, I=   1, J=  91

 MAXIMUM STEPSIZE WHICH MEETS STABILITY CRITERION OF THE ADVECTION TERM
 (FOR PURE FINITE-DIFFERENCE OPTION, MIXELM=0) 
 =  12.76    (WHEN MIN. R.F.=1)  AT K=  16, I=   1, J=  90


 TOTAL NUMBER OF POINT SOURCES/SINKS PRESENT IN THE FLOW MODEL =    30

 MAXIMUM STEPSIZE WHICH MEETS STABILITY CRITERION OF THE SINK & SOURCE TERM
 =  18.43    (WHEN MIN. R.F.=1)  AT K=  17, I=   1, J=  91

 MAXIMUM STEPSIZE WHICH MEETS STABILITY CRITERION OF THE DISPERSION TERM
 =  6.327    (WHEN MIN. R.F.=1)  AT K=  16, I=   1, J=  89
     1 CALLS TO GCG PACKAGE FOR TRANSPORT TIME STEP 113 IN FLOW TIME STEP   1 STRESS PERIOD   1
     4 TOTAL ITERATIONS
0WARNING: NUMERICAL OSCILLATION ENCOUNTERED
 ONE OR MORE CELL CONCENTRATIONS LESS THAN CRHOREF
 SMALLEST DENSITY =  0.100E+04
 AT CELL (I,J,K) = (   1,  68,   6)

 
 SOLVING FOR HEAD 


     2 CALLS TO PCG ROUTINE FOR TIME STEP   1 IN STRESS PERIOD    1
     7 TOTAL ITERATIONS

 MAXIMUM HEAD CHANGE FOR EACH ITERATION (1 INDICATES THE FIRST INNER ITERATION):

    HEAD CHANGE    HEAD CHANGE    HEAD CHANGE    HEAD CHANGE    HEAD CHANGE 
   LAYER,ROW,COL  LAYER,ROW,COL  LAYER,ROW,COL  LAYER,ROW,COL  LAYER,ROW,COL
 ---------------------------------------------------------------------------
  1 -0.3374E-02  0 -0.2832E-02  0  0.2792E-02  0 -0.1465E-02  0 -0.1090E-02
   ( 23,  1, 72)  (  9,  1, 12)  ( 11,  1, 65)  ( 11,  1, 63)  ( 11,  1, 70)
  0 -0.5018E-03  1  0.3912E-03
   ( 11,  1, 71)  ( 11,  1, 70)

 MAXIMUM RESIDUAL FOR EACH ITERATION (1 INDICATES THE FIRST INNER ITERATION):

    RESIDUAL       RESIDUAL       RESIDUAL       RESIDUAL       RESIDUAL    
   LAYER,ROW,COL  LAYER,ROW,COL  LAYER,ROW,COL  LAYER,ROW,COL  LAYER,ROW,COL
 ---------------------------------------------------------------------------
  1 -0.3234E+05  0 -0.2616E+05  0   1498.      0  -1249.      0  -1022.    
   ( 22,  1, 57)  ( 22,  1, 57)  ( 21,  1, 57)  ( 19,  1, 83)  ( 19,  1, 83)
  0  -560.0      1  -489.1    
   ( 19,  1, 83)  ( 19,  1, 83)


 FLOW MODEL IS TRANSIENT
 FLOW MODEL CONTAINS CONSTANT-HEAD CELLS


 MAXIMUM STEPSIZE DURING WHICH ANY PARTICLE CANNOT MOVE MORE THAN ONE CELL
 =  22.61    (WHEN MIN. R.F.=1)  AT K=  18, I=   1, J=  91

 MAXIMUM STEPSIZE WHICH MEETS STABILITY CRITERION OF THE ADVECTION TERM
 (FOR PURE FINITE-DIFFERENCE OPTION, MIXELM=0) 
 =  12.66    (WHEN MIN. R.F.=1)  AT K=  16, I=   1, J=  90


 TOTAL NUMBER OF POINT SOURCES/SINKS PRESENT IN THE FLOW MODEL =    30

 MAXIMUM STEPSIZE WHICH MEETS STABILITY CRITERION OF THE SINK & SOURCE TERM
 =  18.28    (WHEN MIN. R.F.=1)  AT K=  17, I=   1, J=  91

 MAXIMUM STEPSIZE WHICH MEETS STABILITY CRITERION OF THE DISPERSION TERM
 =  6.297    (WHEN MIN. R.F.=1)  AT K=  16, I=   1, J=  89
     1 CALLS TO GCG PACKAGE FOR TRANSPORT TIME STEP 114 IN FLOW TIME STEP   1 STRESS PERIOD   1
     4 TOTAL ITERATIONS
0WARNING: NUMERICAL OSCILLATION ENCOUNTERED
 ONE OR MORE CELL CONCENTRATIONS LESS THAN CRHOREF
 SMALLEST DENSITY =  0.100E+04
 AT CELL (I,J,K) = (   1,  68,   6)

 
 SOLVING FOR HEAD 


     2 CALLS TO PCG ROUTINE FOR TIME STEP   1 IN STRESS PERIOD    1
     7 TOTAL ITERATIONS

 MAXIMUM HEAD CHANGE FOR EACH ITERATION (1 INDICATES THE FIRST INNER ITERATION):

    HEAD CHANGE    HEAD CHANGE    HEAD CHANGE    HEAD CHANGE    HEAD CHANGE 
   LAYER,ROW,COL  LAYER,ROW,COL  LAYER,ROW,COL  LAYER,ROW,COL  LAYER,ROW,COL
 ---------------------------------------------------------------------------
  1 -0.3327E-02  0 -0.2800E-02  0  0.2729E-02  0 -0.1434E-02  0 -0.1064E-02
   ( 23,  1, 72)  (  9,  1, 12)  ( 11,  1, 65)  ( 11,  1, 63)  ( 11,  1, 70)
  0 -0.4937E-03  1  0.3886E-03
   ( 11,  1, 71)  ( 11,  1, 70)

 MAXIMUM RESIDUAL FOR EACH ITERATION (1 INDICATES THE FIRST INNER ITERATION):

    RESIDUAL       RESIDUAL       RESIDUAL       RESIDUAL       RESIDUAL    
   LAYER,ROW,COL  LAYER,ROW,COL  LAYER,ROW,COL  LAYER,ROW,COL  LAYER,ROW,COL
 ---------------------------------------------------------------------------
  1 -0.3219E+05  0 -0.2597E+05  0   1456.      0  -1299.      0  -1063.    
   ( 22,  1, 57)  ( 22,  1, 57)  ( 21,  1, 57)  ( 19,  1, 83)  ( 19,  1, 83)
  0  -579.7      1  -507.7    
   ( 19,  1, 83)  ( 19,  1, 83)


 FLOW MODEL IS TRANSIENT
 FLOW MODEL CONTAINS CONSTANT-HEAD CELLS


 MAXIMUM STEPSIZE DURING WHICH ANY PARTICLE CANNOT MOVE MORE THAN ONE CELL
 =  22.42    (WHEN MIN. R.F.=1)  AT K=  18, I=   1, J=  91

 MAXIMUM STEPSIZE WHICH MEETS STABILITY CRITERION OF THE ADVECTION TERM
 (FOR PURE FINITE-DIFFERENCE OPTION, MIXELM=0) 
 =  12.56    (WHEN MIN. R.F.=1)  AT K=  16, I=   1, J=  90


 TOTAL NUMBER OF POINT SOURCES/SINKS PRESENT IN THE FLOW MODEL =    30

 MAXIMUM STEPSIZE WHICH MEETS STABILITY CRITERION OF THE SINK & SOURCE TERM
 =  18.14    (WHEN MIN. R.F.=1)  AT K=  17, I=   1, J=  91

 MAXIMUM STEPSIZE WHICH MEETS STABILITY CRITERION OF THE DISPERSION TERM
 =  6.267    (WHEN MIN. R.F.=1)  AT K=  16, I=   1, J=  89
     1 CALLS TO GCG PACKAGE FOR TRANSPORT TIME STEP 115 IN FLOW TIME STEP   1 STRESS PERIOD   1
     4 TOTAL ITERATIONS
  MAXIMUM CONCENTRATION CHANGES FOR EACH ITERATION:
  MAX. CHANGE LAYER,ROW,COL MAX. CHANGE LAYER,ROW,COL MAX. CHANGE LAYER,ROW,COL MAX. CHANGE LAYER,ROW,COL MAX. CHANGE LAYER,ROW,COL
 ------------------------------------------------------------------------------------------------------------------------------------
   0.3330     ( 16,  1, 90)  0.7682E-03 ( 17,  1, 89)  0.1972E-04 ( 16,  1, 89)  0.1354E-06 ( 17,  1, 88)
0WARNING: NUMERICAL OSCILLATION ENCOUNTERED
 ONE OR MORE CELL CONCENTRATIONS LESS THAN CRHOREF
 SMALLEST DENSITY =  0.100E+04
 AT CELL (I,J,K) = (   1,  68,   6)

 
 SOLVING FOR HEAD 


     2 CALLS TO PCG ROUTINE FOR TIME STEP   1 IN STRESS PERIOD    1
     7 TOTAL ITERATIONS

 MAXIMUM HEAD CHANGE FOR EACH ITERATION (1 INDICATES THE FIRST INNER ITERATION):

    HEAD CHANGE    HEAD CHANGE    HEAD CHANGE    HEAD CHANGE    HEAD CHANGE 
   LAYER,ROW,COL  LAYER,ROW,COL  LAYER,ROW,COL  LAYER,ROW,COL  LAYER,ROW,COL
 ---------------------------------------------------------------------------
  1 -0.3282E-02  0 -0.2770E-02  0  0.2669E-02  0 -0.1404E-02  0 -0.1039E-02
   ( 23,  1, 72)  (  9,  1, 12)  ( 11,  1, 65)  ( 11,  1, 63)  ( 11,  1, 70)
  0 -0.4854E-03  1  0.3852E-03
   ( 11,  1, 71)  ( 11,  1, 70)

 MAXIMUM RESIDUAL FOR EACH ITERATION (1 INDICATES THE FIRST INNER ITERATION):

    RESIDUAL       RESIDUAL       RESIDUAL       RESIDUAL       RESIDUAL    
   LAYER,ROW,COL  LAYER,ROW,COL  LAYER,ROW,COL  LAYER,ROW,COL  LAYER,ROW,COL
 ---------------------------------------------------------------------------
  1 -0.3200E+05  0 -0.2575E+05  0  -1456.      0  -1328.      0  -1088.    
   ( 22,  1, 57)  ( 22,  1, 57)  ( 19,  1, 83)  ( 19,  1, 83)  ( 19,  1, 83)
  0  -591.9      1  -520.1    
   ( 19,  1, 83)  ( 19,  1, 83)


 FLOW MODEL IS TRANSIENT
 FLOW MODEL CONTAINS CONSTANT-HEAD CELLS


 MAXIMUM STEPSIZE DURING WHICH ANY PARTICLE CANNOT MOVE MORE THAN ONE CELL
 =  22.24    (WHEN MIN. R.F.=1)  AT K=  18, I=   1, J=  91

 MAXIMUM STEPSIZE WHICH MEETS STABILITY CRITERION OF THE ADVECTION TERM
 (FOR PURE FINITE-DIFFERENCE OPTION, MIXELM=0) 
 =  12.47    (WHEN MIN. R.F.=1)  AT K=  16, I=   1, J=  90


 TOTAL NUMBER OF POINT SOURCES/SINKS PRESENT IN THE FLOW MODEL =    30

 MAXIMUM STEPSIZE WHICH MEETS STABILITY CRITERION OF THE SINK & SOURCE TERM
 =  18.00    (WHEN MIN. R.F.=1)  AT K=  17, I=   1, J=  91

 MAXIMUM STEPSIZE WHICH MEETS STABILITY CRITERION OF THE DISPERSION TERM
 =  6.239    (WHEN MIN. R.F.=1)  AT K=  16, I=   1, J=  89
     1 CALLS TO GCG PACKAGE FOR TRANSPORT TIME STEP 116 IN FLOW TIME STEP   1 STRESS PERIOD   1
     4 TOTAL ITERATIONS
0WARNING: NUMERICAL OSCILLATION ENCOUNTERED
 ONE OR MORE CELL CONCENTRATIONS LESS THAN CRHOREF
 SMALLEST DENSITY =  0.100E+04
 AT CELL (I,J,K) = (   1,  68,   6)

 
 SOLVING FOR HEAD 


     2 CALLS TO PCG ROUTINE FOR TIME STEP   1 IN STRESS PERIOD    1
     7 TOTAL ITERATIONS

 MAXIMUM HEAD CHANGE FOR EACH ITERATION (1 INDICATES THE FIRST INNER ITERATION):

    HEAD CHANGE    HEAD CHANGE    HEAD CHANGE    HEAD CHANGE    HEAD CHANGE 
   LAYER,ROW,COL  LAYER,ROW,COL  LAYER,ROW,COL  LAYER,ROW,COL  LAYER,ROW,COL
 ---------------------------------------------------------------------------
  1 -0.3240E-02  0 -0.2742E-02  0  0.2612E-02  0 -0.1376E-02  0 -0.1017E-02
   ( 23,  1, 72)  (  9,  1, 12)  ( 11,  1, 65)  ( 11,  1, 63)  ( 11,  1, 70)
  0 -0.4797E-03  1  0.3850E-03
   ( 11,  1, 71)  ( 11,  1, 70)

 MAXIMUM RESIDUAL FOR EACH ITERATION (1 INDICATES THE FIRST INNER ITERATION):

    RESIDUAL       RESIDUAL       RESIDUAL       RESIDUAL       RESIDUAL    
   LAYER,ROW,COL  LAYER,ROW,COL  LAYER,ROW,COL  LAYER,ROW,COL  LAYER,ROW,COL
 ---------------------------------------------------------------------------
  1 -0.3180E+05  0 -0.2551E+05  0  -1495.      0  -1361.      0  -1114.    
   ( 22,  1, 57)  ( 22,  1, 57)  ( 19,  1, 83)  ( 19,  1, 83)  ( 19,  1, 83)
  0  -601.0      1  -529.7    
   ( 19,  1, 83)  ( 19,  1, 83)


 FLOW MODEL IS TRANSIENT
 FLOW MODEL CONTAINS CONSTANT-HEAD CELLS


 MAXIMUM STEPSIZE DURING WHICH ANY PARTICLE CANNOT MOVE MORE THAN ONE CELL
 =  22.07    (WHEN MIN. R.F.=1)  AT K=  18, I=   1, J=  91

 MAXIMUM STEPSIZE WHICH MEETS STABILITY CRITERION OF THE ADVECTION TERM
 (FOR PURE FINITE-DIFFERENCE OPTION, MIXELM=0) 
 =  12.39    (WHEN MIN. R.F.=1)  AT K=  16, I=   1, J=  90


 TOTAL NUMBER OF POINT SOURCES/SINKS PRESENT IN THE FLOW MODEL =    30

 MAXIMUM STEPSIZE WHICH MEETS STABILITY CRITERION OF THE SINK & SOURCE TERM
 =  17.87    (WHEN MIN. R.F.=1)  AT K=  17, I=   1, J=  91

 MAXIMUM STEPSIZE WHICH MEETS STABILITY CRITERION OF THE DISPERSION TERM
 =  6.211    (WHEN MIN. R.F.=1)  AT K=  16, I=   1, J=  89
     1 CALLS TO GCG PACKAGE FOR TRANSPORT TIME STEP 117 IN FLOW TIME STEP   1 STRESS PERIOD   1
     4 TOTAL ITERATIONS
0WARNING: NUMERICAL OSCILLATION ENCOUNTERED
 ONE OR MORE CELL CONCENTRATIONS LESS THAN CRHOREF
 SMALLEST DENSITY =  0.100E+04
 AT CELL (I,J,K) = (   1,  68,   6)

 
 SOLVING FOR HEAD 


     2 CALLS TO PCG ROUTINE FOR TIME STEP   1 IN STRESS PERIOD    1
     6 TOTAL ITERATIONS

 MAXIMUM HEAD CHANGE FOR EACH ITERATION (1 INDICATES THE FIRST INNER ITERATION):

    HEAD CHANGE    HEAD CHANGE    HEAD CHANGE    HEAD CHANGE    HEAD CHANGE 
   LAYER,ROW,COL  LAYER,ROW,COL  LAYER,ROW,COL  LAYER,ROW,COL  LAYER,ROW,COL
 ---------------------------------------------------------------------------
  1 -0.3200E-02  0 -0.2714E-02  0  0.2585E-02  0 -0.1349E-02  0 -0.9955E-03
   ( 23,  1, 72)  (  9,  1, 12)  ( 10,  1, 12)  ( 11,  1, 63)  ( 11,  1, 70)
  1  0.2322E-03
   ( 11,  1, 69)

 MAXIMUM RESIDUAL FOR EACH ITERATION (1 INDICATES THE FIRST INNER ITERATION):

    RESIDUAL       RESIDUAL       RESIDUAL       RESIDUAL       RESIDUAL    
   LAYER,ROW,COL  LAYER,ROW,COL  LAYER,ROW,COL  LAYER,ROW,COL  LAYER,ROW,COL
 ---------------------------------------------------------------------------
  1 -0.3161E+05  0 -0.2530E+05  0  -1548.      0  -1404.      0  -1148.    
   ( 22,  1, 57)  ( 22,  1, 57)  ( 19,  1, 83)  ( 19,  1, 83)  ( 19,  1, 83)
  1  -923.9    
   ( 19,  1, 83)


 FLOW MODEL IS TRANSIENT
 FLOW MODEL CONTAINS CONSTANT-HEAD CELLS


 MAXIMUM STEPSIZE DURING WHICH ANY PARTICLE CANNOT MOVE MORE THAN ONE CELL
 =  21.92    (WHEN MIN. R.F.=1)  AT K=  18, I=   1, J=  91

 MAXIMUM STEPSIZE WHICH MEETS STABILITY CRITERION OF THE ADVECTION TERM
 (FOR PURE FINITE-DIFFERENCE OPTION, MIXELM=0) 
 =  12.31    (WHEN MIN. R.F.=1)  AT K=  16, I=   1, J=  90


 TOTAL NUMBER OF POINT SOURCES/SINKS PRESENT IN THE FLOW MODEL =    30

 MAXIMUM STEPSIZE WHICH MEETS STABILITY CRITERION OF THE SINK & SOURCE TERM
 =  17.75    (WHEN MIN. R.F.=1)  AT K=  17, I=   1, J=  91

 MAXIMUM STEPSIZE WHICH MEETS STABILITY CRITERION OF THE DISPERSION TERM
 =  6.184    (WHEN MIN. R.F.=1)  AT K=  16, I=   1, J=  89
     1 CALLS TO GCG PACKAGE FOR TRANSPORT TIME STEP 118 IN FLOW TIME STEP   1 STRESS PERIOD   1
     4 TOTAL ITERATIONS
0WARNING: NUMERICAL OSCILLATION ENCOUNTERED
 ONE OR MORE CELL CONCENTRATIONS LESS THAN CRHOREF
 SMALLEST DENSITY =  0.100E+04
 AT CELL (I,J,K) = (   1,  68,   6)

 
 SOLVING FOR HEAD 


     2 CALLS TO PCG ROUTINE FOR TIME STEP   1 IN STRESS PERIOD    1
     6 TOTAL ITERATIONS

 MAXIMUM HEAD CHANGE FOR EACH ITERATION (1 INDICATES THE FIRST INNER ITERATION):

    HEAD CHANGE    HEAD CHANGE    HEAD CHANGE    HEAD CHANGE    HEAD CHANGE 
   LAYER,ROW,COL  LAYER,ROW,COL  LAYER,ROW,COL  LAYER,ROW,COL  LAYER,ROW,COL
 ---------------------------------------------------------------------------
  1 -0.3128E-02  0 -0.2710E-02  0  0.3040E-02  0 -0.1314E-02  0 -0.7118E-03
   ( 23,  1, 72)  (  9,  1, 12)  ( 11,  1, 66)  ( 11,  1, 65)  ( 11,  1, 70)
  1 -0.1665E-03
   ( 11,  1, 71)

 MAXIMUM RESIDUAL FOR EACH ITERATION (1 INDICATES THE FIRST INNER ITERATION):

    RESIDUAL       RESIDUAL       RESIDUAL       RESIDUAL       RESIDUAL    
   LAYER,ROW,COL  LAYER,ROW,COL  LAYER,ROW,COL  LAYER,ROW,COL  LAYER,ROW,COL
 ---------------------------------------------------------------------------
  1 -0.3117E+05  0 -0.2465E+05  0  -1656.      0  -1513.      0  -1250.    
   ( 22,  1, 57)  ( 22,  1, 57)  ( 19,  1, 83)  ( 19,  1, 83)  ( 19,  1, 83)
  1  -996.8    
   ( 19,  1, 83)


 FLOW MODEL IS TRANSIENT
 FLOW MODEL CONTAINS CONSTANT-HEAD CELLS


 MAXIMUM STEPSIZE DURING WHICH ANY PARTICLE CANNOT MOVE MORE THAN ONE CELL
 =  21.85    (WHEN MIN. R.F.=1)  AT K=  18, I=   1, J=  91

 MAXIMUM STEPSIZE WHICH MEETS STABILITY CRITERION OF THE ADVECTION TERM
 (FOR PURE FINITE-DIFFERENCE OPTION, MIXELM=0) 
 =  12.25    (WHEN MIN. R.F.=1)  AT K=  16, I=   1, J=  90


 TOTAL NUMBER OF POINT SOURCES/SINKS PRESENT IN THE FLOW MODEL =    30

 MAXIMUM STEPSIZE WHICH MEETS STABILITY CRITERION OF THE SINK & SOURCE TERM
 =  17.68    (WHEN MIN. R.F.=1)  AT K=  17, I=   1, J=  91

 MAXIMUM STEPSIZE WHICH MEETS STABILITY CRITERION OF THE DISPERSION TERM
 =  6.156    (WHEN MIN. R.F.=1)  AT K=  16, I=   1, J=  89
     1 CALLS TO GCG PACKAGE FOR TRANSPORT TIME STEP 119 IN FLOW TIME STEP   1 STRESS PERIOD   1
     4 TOTAL ITERATIONS
0WARNING: NUMERICAL OSCILLATION ENCOUNTERED
 ONE OR MORE CELL CONCENTRATIONS LESS THAN CRHOREF
 SMALLEST DENSITY =  0.100E+04
 AT CELL (I,J,K) = (   1,  68,   6)

 
 SOLVING FOR HEAD 


     2 CALLS TO PCG ROUTINE FOR TIME STEP   1 IN STRESS PERIOD    1
     6 TOTAL ITERATIONS

 MAXIMUM HEAD CHANGE FOR EACH ITERATION (1 INDICATES THE FIRST INNER ITERATION):

    HEAD CHANGE    HEAD CHANGE    HEAD CHANGE    HEAD CHANGE    HEAD CHANGE 
   LAYER,ROW,COL  LAYER,ROW,COL  LAYER,ROW,COL  LAYER,ROW,COL  LAYER,ROW,COL
 ---------------------------------------------------------------------------
  1 -0.3093E-02  0 -0.2666E-02  0  0.2582E-02  0 -0.1150E-02  0 -0.8663E-03
   ( 23,  1, 72)  (  9,  1, 12)  ( 10,  1, 12)  ( 11,  1, 60)  ( 11,  1, 70)
  1 -0.1799E-03
   ( 11,  1, 71)

 MAXIMUM RESIDUAL FOR EACH ITERATION (1 INDICATES THE FIRST INNER ITERATION):

    RESIDUAL       RESIDUAL       RESIDUAL       RESIDUAL       RESIDUAL    
   LAYER,ROW,COL  LAYER,ROW,COL  LAYER,ROW,COL  LAYER,ROW,COL  LAYER,ROW,COL
 ---------------------------------------------------------------------------
  1 -0.3126E+05  0 -0.2478E+05  0  -1325.      0  -1298.      0  -1074.    
   ( 22,  1, 57)  ( 22,  1, 57)  ( 19,  1, 83)  ( 19,  1, 83)  ( 19,  1, 83)
  1  -847.5    
   ( 19,  1, 83)


 FLOW MODEL IS TRANSIENT
 FLOW MODEL CONTAINS CONSTANT-HEAD CELLS


 MAXIMUM STEPSIZE DURING WHICH ANY PARTICLE CANNOT MOVE MORE THAN ONE CELL
 =  21.73    (WHEN MIN. R.F.=1)  AT K=  18, I=   1, J=  91

 MAXIMUM STEPSIZE WHICH MEETS STABILITY CRITERION OF THE ADVECTION TERM
 (FOR PURE FINITE-DIFFERENCE OPTION, MIXELM=0) 
 =  12.18    (WHEN MIN. R.F.=1)  AT K=  16, I=   1, J=  90


 TOTAL NUMBER OF POINT SOURCES/SINKS PRESENT IN THE FLOW MODEL =    30

 MAXIMUM STEPSIZE WHICH MEETS STABILITY CRITERION OF THE SINK & SOURCE TERM
 =  17.58    (WHEN MIN. R.F.=1)  AT K=  17, I=   1, J=  91

 MAXIMUM STEPSIZE WHICH MEETS STABILITY CRITERION OF THE DISPERSION TERM
 =  6.130    (WHEN MIN. R.F.=1)  AT K=  16, I=   1, J=  89
     1 CALLS TO GCG PACKAGE FOR TRANSPORT TIME STEP 120 IN FLOW TIME STEP   1 STRESS PERIOD   1
     4 TOTAL ITERATIONS
  MAXIMUM CONCENTRATION CHANGES FOR EACH ITERATION:
  MAX. CHANGE LAYER,ROW,COL MAX. CHANGE LAYER,ROW,COL MAX. CHANGE LAYER,ROW,COL MAX. CHANGE LAYER,ROW,COL MAX. CHANGE LAYER,ROW,COL
 ------------------------------------------------------------------------------------------------------------------------------------
   0.3325     ( 16,  1, 90)  0.7557E-03 ( 17,  1, 89)  0.1918E-04 ( 16,  1, 89)  0.1343E-06 ( 17,  1, 88)



 >>>>>>>>>>>>>>>>>>>>>>>>>>>>>>>>>>>>>>>>>>>>>>>>>>>>>>>FOR COMPONENT NO. 01<<<<<<<<<<<<<<<<<<<<<<<<<<<<<<<<<<<<<<<<<<<<<<<<<<<<<<<


                                            -------------------------------------------
                                                      TRANSPORT STEP NO.  120
                                            -------------------------------------------

 TOTAL ELAPSED TIME SINCE BEGINNING OF SIMULATION =   1058.514    D   
 .....................................................................

                     CUMMULATIVE MASS BUDGETS AT END OF TRANSPORT STEP  120, TIME STEP    1, STRESS PERIOD    1
                     ------------------------------------------------------------------------------------------

                                                             IN                           OUT
                                                      ----------------             ----------------
                               CONSTANT CONCENTRATION:    0.000000                    0.000000    
                                        CONSTANT HEAD:    9527305.                  -0.1275921E+08
                                             RECHARGE:    0.000000                    0.000000    
                                MASS STORAGE (SOLUTE):   0.2333086E+08              -0.2009895E+08
                            ---------------------------------------------------------------------------
                                              [TOTAL]:   0.3285931E+08 KG           -0.3285931E+08 KG  

                                                          NET (IN - OUT):   0.9565063    
                                                   DISCREPANCY (PERCENT):   0.2910914E-05
0WARNING: NUMERICAL OSCILLATION ENCOUNTERED
 ONE OR MORE CELL CONCENTRATIONS LESS THAN CRHOREF
 SMALLEST DENSITY =  0.100E+04
 AT CELL (I,J,K) = (   1,  68,   6)

 
 SOLVING FOR HEAD 


     2 CALLS TO PCG ROUTINE FOR TIME STEP   1 IN STRESS PERIOD    1
     6 TOTAL ITERATIONS

 MAXIMUM HEAD CHANGE FOR EACH ITERATION (1 INDICATES THE FIRST INNER ITERATION):

    HEAD CHANGE    HEAD CHANGE    HEAD CHANGE    HEAD CHANGE    HEAD CHANGE 
   LAYER,ROW,COL  LAYER,ROW,COL  LAYER,ROW,COL  LAYER,ROW,COL  LAYER,ROW,COL
 ---------------------------------------------------------------------------
  1 -0.3068E-02  0 -0.2645E-02  0  0.2926E-02  0 -0.1366E-02  0 -0.8152E-03
   ( 23,  1, 72)  (  9,  1, 12)  ( 11,  1, 66)  ( 11,  1, 65)  ( 11,  1, 70)
  1  0.1426E-03
   ( 11,  1, 56)

 MAXIMUM RESIDUAL FOR EACH ITERATION (1 INDICATES THE FIRST INNER ITERATION):

    RESIDUAL       RESIDUAL       RESIDUAL       RESIDUAL       RESIDUAL    
   LAYER,ROW,COL  LAYER,ROW,COL  LAYER,ROW,COL  LAYER,ROW,COL  LAYER,ROW,COL
 ---------------------------------------------------------------------------
  1 -0.3101E+05  0 -0.2450E+05  0  -1602.      0  -1460.      0  -1188.    
   ( 22,  1, 57)  ( 22,  1, 57)  ( 19,  1, 83)  ( 19,  1, 83)  ( 19,  1, 83)
  1  -966.1    
   ( 19,  1, 83)


 FLOW MODEL IS TRANSIENT
 FLOW MODEL CONTAINS CONSTANT-HEAD CELLS


 MAXIMUM STEPSIZE DURING WHICH ANY PARTICLE CANNOT MOVE MORE THAN ONE CELL
 =  21.62    (WHEN MIN. R.F.=1)  AT K=  18, I=   1, J=  91

 MAXIMUM STEPSIZE WHICH MEETS STABILITY CRITERION OF THE ADVECTION TERM
 (FOR PURE FINITE-DIFFERENCE OPTION, MIXELM=0) 
 =  12.12    (WHEN MIN. R.F.=1)  AT K=  16, I=   1, J=  90


 TOTAL NUMBER OF POINT SOURCES/SINKS PRESENT IN THE FLOW MODEL =    30

 MAXIMUM STEPSIZE WHICH MEETS STABILITY CRITERION OF THE SINK & SOURCE TERM
 =  17.49    (WHEN MIN. R.F.=1)  AT K=  17, I=   1, J=  91

 MAXIMUM STEPSIZE WHICH MEETS STABILITY CRITERION OF THE DISPERSION TERM
 =  6.104    (WHEN MIN. R.F.=1)  AT K=  16, I=   1, J=  89
     1 CALLS TO GCG PACKAGE FOR TRANSPORT TIME STEP 121 IN FLOW TIME STEP   1 STRESS PERIOD   1
     4 TOTAL ITERATIONS
0WARNING: NUMERICAL OSCILLATION ENCOUNTERED
 ONE OR MORE CELL CONCENTRATIONS LESS THAN CRHOREF
 SMALLEST DENSITY =  0.100E+04
 AT CELL (I,J,K) = (   1,  68,   6)

 
 SOLVING FOR HEAD 


     2 CALLS TO PCG ROUTINE FOR TIME STEP   1 IN STRESS PERIOD    1
     6 TOTAL ITERATIONS

 MAXIMUM HEAD CHANGE FOR EACH ITERATION (1 INDICATES THE FIRST INNER ITERATION):

    HEAD CHANGE    HEAD CHANGE    HEAD CHANGE    HEAD CHANGE    HEAD CHANGE 
   LAYER,ROW,COL  LAYER,ROW,COL  LAYER,ROW,COL  LAYER,ROW,COL  LAYER,ROW,COL
 ---------------------------------------------------------------------------
  1 -0.3038E-02  0 -0.2631E-02  0  0.2540E-02  0 -0.1017E-02  0 -0.8202E-03
   ( 23,  1, 72)  (  9,  1, 12)  ( 10,  1, 12)  ( 11,  1, 57)  ( 11,  1, 70)
  1 -0.1731E-03
   ( 11,  1, 71)

 MAXIMUM RESIDUAL FOR EACH ITERATION (1 INDICATES THE FIRST INNER ITERATION):

    RESIDUAL       RESIDUAL       RESIDUAL       RESIDUAL       RESIDUAL    
   LAYER,ROW,COL  LAYER,ROW,COL  LAYER,ROW,COL  LAYER,ROW,COL  LAYER,ROW,COL
 ---------------------------------------------------------------------------
  1 -0.3070E+05  0 -0.2423E+05  0  -1835.      0  -1711.      0  -1397.    
   ( 22,  1, 57)  ( 22,  1, 57)  ( 19,  1, 83)  ( 19,  1, 83)  ( 19,  1, 83)
  1  -1092.    
   ( 19,  1, 83)


 FLOW MODEL IS TRANSIENT
 FLOW MODEL CONTAINS CONSTANT-HEAD CELLS


 MAXIMUM STEPSIZE DURING WHICH ANY PARTICLE CANNOT MOVE MORE THAN ONE CELL
 =  21.53    (WHEN MIN. R.F.=1)  AT K=  18, I=   1, J=  91

 MAXIMUM STEPSIZE WHICH MEETS STABILITY CRITERION OF THE ADVECTION TERM
 (FOR PURE FINITE-DIFFERENCE OPTION, MIXELM=0) 
 =  12.05    (WHEN MIN. R.F.=1)  AT K=  16, I=   1, J=  90


 TOTAL NUMBER OF POINT SOURCES/SINKS PRESENT IN THE FLOW MODEL =    30

 MAXIMUM STEPSIZE WHICH MEETS STABILITY CRITERION OF THE SINK & SOURCE TERM
 =  17.41    (WHEN MIN. R.F.=1)  AT K=  17, I=   1, J=  91

 MAXIMUM STEPSIZE WHICH MEETS STABILITY CRITERION OF THE DISPERSION TERM
 =  6.079    (WHEN MIN. R.F.=1)  AT K=  16, I=   1, J=  89
     1 CALLS TO GCG PACKAGE FOR TRANSPORT TIME STEP 122 IN FLOW TIME STEP   1 STRESS PERIOD   1
     4 TOTAL ITERATIONS
0WARNING: NUMERICAL OSCILLATION ENCOUNTERED
 ONE OR MORE CELL CONCENTRATIONS LESS THAN CRHOREF
 SMALLEST DENSITY =  0.100E+04
 AT CELL (I,J,K) = (   1,  68,   6)

 
 SOLVING FOR HEAD 


     2 CALLS TO PCG ROUTINE FOR TIME STEP   1 IN STRESS PERIOD    1
     6 TOTAL ITERATIONS

 MAXIMUM HEAD CHANGE FOR EACH ITERATION (1 INDICATES THE FIRST INNER ITERATION):

    HEAD CHANGE    HEAD CHANGE    HEAD CHANGE    HEAD CHANGE    HEAD CHANGE 
   LAYER,ROW,COL  LAYER,ROW,COL  LAYER,ROW,COL  LAYER,ROW,COL  LAYER,ROW,COL
 ---------------------------------------------------------------------------
  1 -0.3012E-02  0 -0.2603E-02  0  0.2867E-02  0 -0.1321E-02  0 -0.7720E-03
   ( 23,  1, 72)  (  9,  1, 12)  ( 11,  1, 66)  ( 11,  1, 65)  ( 11,  1, 70)
  1 -0.1408E-03
   ( 11,  1, 71)

 MAXIMUM RESIDUAL FOR EACH ITERATION (1 INDICATES THE FIRST INNER ITERATION):

    RESIDUAL       RESIDUAL       RESIDUAL       RESIDUAL       RESIDUAL    
   LAYER,ROW,COL  LAYER,ROW,COL  LAYER,ROW,COL  LAYER,ROW,COL  LAYER,ROW,COL
 ---------------------------------------------------------------------------
  1 -0.3060E+05  0 -0.2408E+05  0  -1635.      0  -1520.      0  -1244.    
   ( 22,  1, 57)  ( 22,  1, 57)  ( 19,  1, 83)  ( 19,  1, 83)  ( 19,  1, 83)
  1  -1011.    
   ( 19,  1, 83)


 FLOW MODEL IS TRANSIENT
 FLOW MODEL CONTAINS CONSTANT-HEAD CELLS


 MAXIMUM STEPSIZE DURING WHICH ANY PARTICLE CANNOT MOVE MORE THAN ONE CELL
 =  21.41    (WHEN MIN. R.F.=1)  AT K=  18, I=   1, J=  91

 MAXIMUM STEPSIZE WHICH MEETS STABILITY CRITERION OF THE ADVECTION TERM
 (FOR PURE FINITE-DIFFERENCE OPTION, MIXELM=0) 
 =  11.99    (WHEN MIN. R.F.=1)  AT K=  16, I=   1, J=  90


 TOTAL NUMBER OF POINT SOURCES/SINKS PRESENT IN THE FLOW MODEL =    30

 MAXIMUM STEPSIZE WHICH MEETS STABILITY CRITERION OF THE SINK & SOURCE TERM
 =  17.32    (WHEN MIN. R.F.=1)  AT K=  17, I=   1, J=  91

 MAXIMUM STEPSIZE WHICH MEETS STABILITY CRITERION OF THE DISPERSION TERM
 =  6.055    (WHEN MIN. R.F.=1)  AT K=  16, I=   1, J=  89
     1 CALLS TO GCG PACKAGE FOR TRANSPORT TIME STEP 123 IN FLOW TIME STEP   1 STRESS PERIOD   1
     4 TOTAL ITERATIONS
0WARNING: NUMERICAL OSCILLATION ENCOUNTERED
 ONE OR MORE CELL CONCENTRATIONS LESS THAN CRHOREF
 SMALLEST DENSITY =  0.100E+04
 AT CELL (I,J,K) = (   1,  68,   6)

 
 SOLVING FOR HEAD 


     2 CALLS TO PCG ROUTINE FOR TIME STEP   1 IN STRESS PERIOD    1
     5 TOTAL ITERATIONS

 MAXIMUM HEAD CHANGE FOR EACH ITERATION (1 INDICATES THE FIRST INNER ITERATION):

    HEAD CHANGE    HEAD CHANGE    HEAD CHANGE    HEAD CHANGE    HEAD CHANGE 
   LAYER,ROW,COL  LAYER,ROW,COL  LAYER,ROW,COL  LAYER,ROW,COL  LAYER,ROW,COL
 ---------------------------------------------------------------------------
  1 -0.2973E-02  0 -0.2580E-02  0  0.2502E-02  0 -0.9535E-03  1 -0.6730E-03
   ( 23,  1, 72)  (  9,  1, 12)  ( 10,  1, 12)  ( 11,  1, 56)  ( 11,  1, 70)

 MAXIMUM RESIDUAL FOR EACH ITERATION (1 INDICATES THE FIRST INNER ITERATION):

    RESIDUAL       RESIDUAL       RESIDUAL       RESIDUAL       RESIDUAL    
   LAYER,ROW,COL  LAYER,ROW,COL  LAYER,ROW,COL  LAYER,ROW,COL  LAYER,ROW,COL
 ---------------------------------------------------------------------------
  1 -0.3034E+05  0 -0.2385E+05  0  -1611.      0  -1514.      1  -1300.    
   ( 22,  1, 57)  ( 22,  1, 57)  ( 19,  1, 83)  ( 19,  1, 83)  ( 19,  1, 83)


 FLOW MODEL IS TRANSIENT
 FLOW MODEL CONTAINS CONSTANT-HEAD CELLS


 MAXIMUM STEPSIZE DURING WHICH ANY PARTICLE CANNOT MOVE MORE THAN ONE CELL
 =  21.32    (WHEN MIN. R.F.=1)  AT K=  18, I=   1, J=  91

 MAXIMUM STEPSIZE WHICH MEETS STABILITY CRITERION OF THE ADVECTION TERM
 (FOR PURE FINITE-DIFFERENCE OPTION, MIXELM=0) 
 =  11.93    (WHEN MIN. R.F.=1)  AT K=  16, I=   1, J=  90


 TOTAL NUMBER OF POINT SOURCES/SINKS PRESENT IN THE FLOW MODEL =    30

 MAXIMUM STEPSIZE WHICH MEETS STABILITY CRITERION OF THE SINK & SOURCE TERM
 =  17.24    (WHEN MIN. R.F.=1)  AT K=  17, I=   1, J=  91

 MAXIMUM STEPSIZE WHICH MEETS STABILITY CRITERION OF THE DISPERSION TERM
 =  6.032    (WHEN MIN. R.F.=1)  AT K=  16, I=   1, J=  89
     1 CALLS TO GCG PACKAGE FOR TRANSPORT TIME STEP 124 IN FLOW TIME STEP   1 STRESS PERIOD   1
     4 TOTAL ITERATIONS
0WARNING: NUMERICAL OSCILLATION ENCOUNTERED
 ONE OR MORE CELL CONCENTRATIONS LESS THAN CRHOREF
 SMALLEST DENSITY =  0.100E+04
 AT CELL (I,J,K) = (   1,  68,   6)

 
 SOLVING FOR HEAD 


     2 CALLS TO PCG ROUTINE FOR TIME STEP   1 IN STRESS PERIOD    1
     5 TOTAL ITERATIONS

 MAXIMUM HEAD CHANGE FOR EACH ITERATION (1 INDICATES THE FIRST INNER ITERATION):

    HEAD CHANGE    HEAD CHANGE    HEAD CHANGE    HEAD CHANGE    HEAD CHANGE 
   LAYER,ROW,COL  LAYER,ROW,COL  LAYER,ROW,COL  LAYER,ROW,COL  LAYER,ROW,COL
 ---------------------------------------------------------------------------
  1 -0.2927E-02  0 -0.2580E-02  0  0.2496E-02  0 -0.9629E-03  1 -0.6705E-03
   ( 23,  1, 72)  (  9,  1, 12)  ( 10,  1, 12)  ( 11,  1, 60)  ( 11,  1, 70)

 MAXIMUM RESIDUAL FOR EACH ITERATION (1 INDICATES THE FIRST INNER ITERATION):

    RESIDUAL       RESIDUAL       RESIDUAL       RESIDUAL       RESIDUAL    
   LAYER,ROW,COL  LAYER,ROW,COL  LAYER,ROW,COL  LAYER,ROW,COL  LAYER,ROW,COL
 ---------------------------------------------------------------------------
  1 -0.2960E+05  0 -0.2301E+05  0  -1885.      0  -1794.      1  -1514.    
   ( 22,  1, 57)  ( 22,  1, 57)  ( 19,  1, 83)  ( 19,  1, 83)  ( 19,  1, 83)


 FLOW MODEL IS TRANSIENT
 FLOW MODEL CONTAINS CONSTANT-HEAD CELLS


 MAXIMUM STEPSIZE DURING WHICH ANY PARTICLE CANNOT MOVE MORE THAN ONE CELL
 =  21.26    (WHEN MIN. R.F.=1)  AT K=  18, I=   1, J=  91

 MAXIMUM STEPSIZE WHICH MEETS STABILITY CRITERION OF THE ADVECTION TERM
 (FOR PURE FINITE-DIFFERENCE OPTION, MIXELM=0) 
 =  11.88    (WHEN MIN. R.F.=1)  AT K=  16, I=   1, J=  90


 TOTAL NUMBER OF POINT SOURCES/SINKS PRESENT IN THE FLOW MODEL =    30

 MAXIMUM STEPSIZE WHICH MEETS STABILITY CRITERION OF THE SINK & SOURCE TERM
 =  17.18    (WHEN MIN. R.F.=1)  AT K=  17, I=   1, J=  91

 MAXIMUM STEPSIZE WHICH MEETS STABILITY CRITERION OF THE DISPERSION TERM
 =  6.007    (WHEN MIN. R.F.=1)  AT K=  16, I=   1, J=  89
     1 CALLS TO GCG PACKAGE FOR TRANSPORT TIME STEP 125 IN FLOW TIME STEP   1 STRESS PERIOD   1
     4 TOTAL ITERATIONS
  MAXIMUM CONCENTRATION CHANGES FOR EACH ITERATION:
  MAX. CHANGE LAYER,ROW,COL MAX. CHANGE LAYER,ROW,COL MAX. CHANGE LAYER,ROW,COL MAX. CHANGE LAYER,ROW,COL MAX. CHANGE LAYER,ROW,COL
 ------------------------------------------------------------------------------------------------------------------------------------
   0.3320     ( 16,  1, 90)  0.7465E-03 ( 17,  1, 89)  0.1888E-04 ( 16,  1, 89)  0.1352E-06 ( 17,  1, 88)
0WARNING: NUMERICAL OSCILLATION ENCOUNTERED
 ONE OR MORE CELL CONCENTRATIONS LESS THAN CRHOREF
 SMALLEST DENSITY =  0.100E+04
 AT CELL (I,J,K) = (   1,  68,   6)

 
 SOLVING FOR HEAD 


     2 CALLS TO PCG ROUTINE FOR TIME STEP   1 IN STRESS PERIOD    1
     6 TOTAL ITERATIONS

 MAXIMUM HEAD CHANGE FOR EACH ITERATION (1 INDICATES THE FIRST INNER ITERATION):

    HEAD CHANGE    HEAD CHANGE    HEAD CHANGE    HEAD CHANGE    HEAD CHANGE 
   LAYER,ROW,COL  LAYER,ROW,COL  LAYER,ROW,COL  LAYER,ROW,COL  LAYER,ROW,COL
 ---------------------------------------------------------------------------
  1 -0.2898E-02  0 -0.2533E-02  0  0.2523E-02  0 -0.1073E-02  0 -0.7725E-03
   ( 23,  1, 72)  (  9,  1, 12)  ( 11,  1, 62)  ( 11,  1, 61)  ( 11,  1, 70)
  1 -0.1455E-03
   ( 11,  1, 71)

 MAXIMUM RESIDUAL FOR EACH ITERATION (1 INDICATES THE FIRST INNER ITERATION):

    RESIDUAL       RESIDUAL       RESIDUAL       RESIDUAL       RESIDUAL    
   LAYER,ROW,COL  LAYER,ROW,COL  LAYER,ROW,COL  LAYER,ROW,COL  LAYER,ROW,COL
 ---------------------------------------------------------------------------
  1 -0.2964E+05  0 -0.2314E+05  0  -1422.      0  -1406.      0  -1146.    
   ( 22,  1, 57)  ( 22,  1, 57)  ( 19,  1, 83)  ( 19,  1, 83)  ( 19,  1, 83)
  1  -897.7    
   ( 19,  1, 83)


 FLOW MODEL IS TRANSIENT
 FLOW MODEL CONTAINS CONSTANT-HEAD CELLS


 MAXIMUM STEPSIZE DURING WHICH ANY PARTICLE CANNOT MOVE MORE THAN ONE CELL
 =  21.14    (WHEN MIN. R.F.=1)  AT K=  18, I=   1, J=  91

 MAXIMUM STEPSIZE WHICH MEETS STABILITY CRITERION OF THE ADVECTION TERM
 (FOR PURE FINITE-DIFFERENCE OPTION, MIXELM=0) 
 =  11.82    (WHEN MIN. R.F.=1)  AT K=  16, I=   1, J=  90


 TOTAL NUMBER OF POINT SOURCES/SINKS PRESENT IN THE FLOW MODEL =    30

 MAXIMUM STEPSIZE WHICH MEETS STABILITY CRITERION OF THE SINK & SOURCE TERM
 =  17.09    (WHEN MIN. R.F.=1)  AT K=  17, I=   1, J=  91

 MAXIMUM STEPSIZE WHICH MEETS STABILITY CRITERION OF THE DISPERSION TERM
 =  5.985    (WHEN MIN. R.F.=1)  AT K=  16, I=   1, J=  89
     1 CALLS TO GCG PACKAGE FOR TRANSPORT TIME STEP 126 IN FLOW TIME STEP   1 STRESS PERIOD   1
     4 TOTAL ITERATIONS
0WARNING: NUMERICAL OSCILLATION ENCOUNTERED
 ONE OR MORE CELL CONCENTRATIONS LESS THAN CRHOREF
 SMALLEST DENSITY =  0.100E+04
 AT CELL (I,J,K) = (   1,  68,   6)

 
 SOLVING FOR HEAD 


     2 CALLS TO PCG ROUTINE FOR TIME STEP   1 IN STRESS PERIOD    1
     6 TOTAL ITERATIONS

 MAXIMUM HEAD CHANGE FOR EACH ITERATION (1 INDICATES THE FIRST INNER ITERATION):

    HEAD CHANGE    HEAD CHANGE    HEAD CHANGE    HEAD CHANGE    HEAD CHANGE 
   LAYER,ROW,COL  LAYER,ROW,COL  LAYER,ROW,COL  LAYER,ROW,COL  LAYER,ROW,COL
 ---------------------------------------------------------------------------
  1 -0.2848E-02  0 -0.2482E-02  0  0.2672E-02  0 -0.1276E-02  0 -0.7726E-03
   ( 23,  1, 72)  (  9,  1, 12)  ( 11,  1, 65)  ( 11,  1, 65)  ( 11,  1, 70)
  1  0.1505E-03
   ( 11,  1, 56)

 MAXIMUM RESIDUAL FOR EACH ITERATION (1 INDICATES THE FIRST INNER ITERATION):

    RESIDUAL       RESIDUAL       RESIDUAL       RESIDUAL       RESIDUAL    
   LAYER,ROW,COL  LAYER,ROW,COL  LAYER,ROW,COL  LAYER,ROW,COL  LAYER,ROW,COL
 ---------------------------------------------------------------------------
  1 -0.3018E+05  0 -0.2364E+05  0  -1204.      0  -1150.      0  -943.7    
   ( 22,  1, 57)  ( 22,  1, 57)  ( 17,  1, 82)  ( 17,  1, 82)  ( 17,  1, 82)
  1  -716.8    
   ( 17,  1, 82)


 FLOW MODEL IS TRANSIENT
 FLOW MODEL CONTAINS CONSTANT-HEAD CELLS


 MAXIMUM STEPSIZE DURING WHICH ANY PARTICLE CANNOT MOVE MORE THAN ONE CELL
 =  21.03    (WHEN MIN. R.F.=1)  AT K=  18, I=   1, J=  91

 MAXIMUM STEPSIZE WHICH MEETS STABILITY CRITERION OF THE ADVECTION TERM
 (FOR PURE FINITE-DIFFERENCE OPTION, MIXELM=0) 
 =  11.76    (WHEN MIN. R.F.=1)  AT K=  16, I=   1, J=  90


 TOTAL NUMBER OF POINT SOURCES/SINKS PRESENT IN THE FLOW MODEL =    30

 MAXIMUM STEPSIZE WHICH MEETS STABILITY CRITERION OF THE SINK & SOURCE TERM
 =  17.00    (WHEN MIN. R.F.=1)  AT K=  17, I=   1, J=  91

 MAXIMUM STEPSIZE WHICH MEETS STABILITY CRITERION OF THE DISPERSION TERM
 =  5.964    (WHEN MIN. R.F.=1)  AT K=  16, I=   1, J=  89
     1 CALLS TO GCG PACKAGE FOR TRANSPORT TIME STEP 127 IN FLOW TIME STEP   1 STRESS PERIOD   1
     4 TOTAL ITERATIONS
0WARNING: NUMERICAL OSCILLATION ENCOUNTERED
 ONE OR MORE CELL CONCENTRATIONS LESS THAN CRHOREF
 SMALLEST DENSITY =  0.100E+04
 AT CELL (I,J,K) = (   1,  68,   6)

 
 SOLVING FOR HEAD 


     2 CALLS TO PCG ROUTINE FOR TIME STEP   1 IN STRESS PERIOD    1
     5 TOTAL ITERATIONS

 MAXIMUM HEAD CHANGE FOR EACH ITERATION (1 INDICATES THE FIRST INNER ITERATION):

    HEAD CHANGE    HEAD CHANGE    HEAD CHANGE    HEAD CHANGE    HEAD CHANGE 
   LAYER,ROW,COL  LAYER,ROW,COL  LAYER,ROW,COL  LAYER,ROW,COL  LAYER,ROW,COL
 ---------------------------------------------------------------------------
  1 -0.2823E-02  0 -0.2475E-02  0  0.2394E-02  0 -0.9454E-03  1 -0.6304E-03
   ( 23,  1, 72)  (  9,  1, 12)  ( 10,  1, 12)  ( 11,  1, 56)  ( 11,  1, 70)

 MAXIMUM RESIDUAL FOR EACH ITERATION (1 INDICATES THE FIRST INNER ITERATION):

    RESIDUAL       RESIDUAL       RESIDUAL       RESIDUAL       RESIDUAL    
   LAYER,ROW,COL  LAYER,ROW,COL  LAYER,ROW,COL  LAYER,ROW,COL  LAYER,ROW,COL
 ---------------------------------------------------------------------------
  1 -0.2964E+05  0 -0.2317E+05  0  -1691.      0  -1478.      1  -1253.    
   ( 22,  1, 57)  ( 22,  1, 57)  ( 19,  1, 83)  ( 19,  1, 83)  ( 19,  1, 83)


 FLOW MODEL IS TRANSIENT
 FLOW MODEL CONTAINS CONSTANT-HEAD CELLS


 MAXIMUM STEPSIZE DURING WHICH ANY PARTICLE CANNOT MOVE MORE THAN ONE CELL
 =  20.96    (WHEN MIN. R.F.=1)  AT K=  18, I=   1, J=  91

 MAXIMUM STEPSIZE WHICH MEETS STABILITY CRITERION OF THE ADVECTION TERM
 (FOR PURE FINITE-DIFFERENCE OPTION, MIXELM=0) 
 =  11.71    (WHEN MIN. R.F.=1)  AT K=  16, I=   1, J=  90


 TOTAL NUMBER OF POINT SOURCES/SINKS PRESENT IN THE FLOW MODEL =    30

 MAXIMUM STEPSIZE WHICH MEETS STABILITY CRITERION OF THE SINK & SOURCE TERM
 =  16.93    (WHEN MIN. R.F.=1)  AT K=  17, I=   1, J=  91

 MAXIMUM STEPSIZE WHICH MEETS STABILITY CRITERION OF THE DISPERSION TERM
 =  5.942    (WHEN MIN. R.F.=1)  AT K=  16, I=   1, J=  89
     1 CALLS TO GCG PACKAGE FOR TRANSPORT TIME STEP 128 IN FLOW TIME STEP   1 STRESS PERIOD   1
     4 TOTAL ITERATIONS
0WARNING: NUMERICAL OSCILLATION ENCOUNTERED
 ONE OR MORE CELL CONCENTRATIONS LESS THAN CRHOREF
 SMALLEST DENSITY =  0.100E+04
 AT CELL (I,J,K) = (   1,  68,   6)

 
 SOLVING FOR HEAD 


     2 CALLS TO PCG ROUTINE FOR TIME STEP   1 IN STRESS PERIOD    1
     5 TOTAL ITERATIONS

 MAXIMUM HEAD CHANGE FOR EACH ITERATION (1 INDICATES THE FIRST INNER ITERATION):

    HEAD CHANGE    HEAD CHANGE    HEAD CHANGE    HEAD CHANGE    HEAD CHANGE 
   LAYER,ROW,COL  LAYER,ROW,COL  LAYER,ROW,COL  LAYER,ROW,COL  LAYER,ROW,COL
 ---------------------------------------------------------------------------
  1 -0.2792E-02  0 -0.2468E-02  0  0.2387E-02  0 -0.9235E-03  1 -0.6571E-03
   ( 23,  1, 72)  (  9,  1, 12)  ( 10,  1, 12)  ( 11,  1, 58)  ( 11,  1, 70)

 MAXIMUM RESIDUAL FOR EACH ITERATION (1 INDICATES THE FIRST INNER ITERATION):

    RESIDUAL       RESIDUAL       RESIDUAL       RESIDUAL       RESIDUAL    
   LAYER,ROW,COL  LAYER,ROW,COL  LAYER,ROW,COL  LAYER,ROW,COL  LAYER,ROW,COL
 ---------------------------------------------------------------------------
  1 -0.2898E+05  0 -0.2246E+05  0  -1657.      0  -1581.      1  -1331.    
   ( 22,  1, 57)  ( 22,  1, 57)  ( 19,  1, 83)  ( 19,  1, 83)  ( 19,  1, 83)


 FLOW MODEL IS TRANSIENT
 FLOW MODEL CONTAINS CONSTANT-HEAD CELLS


 MAXIMUM STEPSIZE DURING WHICH ANY PARTICLE CANNOT MOVE MORE THAN ONE CELL
 =  20.88    (WHEN MIN. R.F.=1)  AT K=  18, I=   1, J=  91

 MAXIMUM STEPSIZE WHICH MEETS STABILITY CRITERION OF THE ADVECTION TERM
 (FOR PURE FINITE-DIFFERENCE OPTION, MIXELM=0) 
 =  11.66    (WHEN MIN. R.F.=1)  AT K=  16, I=   1, J=  90


 TOTAL NUMBER OF POINT SOURCES/SINKS PRESENT IN THE FLOW MODEL =    30

 MAXIMUM STEPSIZE WHICH MEETS STABILITY CRITERION OF THE SINK & SOURCE TERM
 =  16.87    (WHEN MIN. R.F.=1)  AT K=  17, I=   1, J=  91

 MAXIMUM STEPSIZE WHICH MEETS STABILITY CRITERION OF THE DISPERSION TERM
 =  5.920    (WHEN MIN. R.F.=1)  AT K=  16, I=   1, J=  89
     1 CALLS TO GCG PACKAGE FOR TRANSPORT TIME STEP 129 IN FLOW TIME STEP   1 STRESS PERIOD   1
     4 TOTAL ITERATIONS
0WARNING: NUMERICAL OSCILLATION ENCOUNTERED
 ONE OR MORE CELL CONCENTRATIONS LESS THAN CRHOREF
 SMALLEST DENSITY =  0.100E+04
 AT CELL (I,J,K) = (   1,  68,   6)

 
 SOLVING FOR HEAD 


     2 CALLS TO PCG ROUTINE FOR TIME STEP   1 IN STRESS PERIOD    1
     6 TOTAL ITERATIONS

 MAXIMUM HEAD CHANGE FOR EACH ITERATION (1 INDICATES THE FIRST INNER ITERATION):

    HEAD CHANGE    HEAD CHANGE    HEAD CHANGE    HEAD CHANGE    HEAD CHANGE 
   LAYER,ROW,COL  LAYER,ROW,COL  LAYER,ROW,COL  LAYER,ROW,COL  LAYER,ROW,COL
 ---------------------------------------------------------------------------
  1 -0.2735E-02  0 -0.2410E-02  0  0.2356E-02  0 -0.1028E-02  0 -0.7187E-03
   ( 23,  1, 72)  (  9,  1, 12)  ( 11,  1, 61)  ( 11,  1, 60)  ( 11,  1, 70)
  1 -0.1444E-03
   ( 11,  1, 71)

 MAXIMUM RESIDUAL FOR EACH ITERATION (1 INDICATES THE FIRST INNER ITERATION):

    RESIDUAL       RESIDUAL       RESIDUAL       RESIDUAL       RESIDUAL    
   LAYER,ROW,COL  LAYER,ROW,COL  LAYER,ROW,COL  LAYER,ROW,COL  LAYER,ROW,COL
 ---------------------------------------------------------------------------
  1 -0.2914E+05  0 -0.2263E+05  0   967.6      0   680.1      0  -501.7    
   ( 22,  1, 57)  ( 22,  1, 57)  ( 21,  1, 56)  ( 21,  1, 56)  ( 17,  1, 82)
  1  -384.6    
   ( 19,  1, 83)


 FLOW MODEL IS TRANSIENT
 FLOW MODEL CONTAINS CONSTANT-HEAD CELLS


 MAXIMUM STEPSIZE DURING WHICH ANY PARTICLE CANNOT MOVE MORE THAN ONE CELL
 =  20.78    (WHEN MIN. R.F.=1)  AT K=  18, I=   1, J=  91

 MAXIMUM STEPSIZE WHICH MEETS STABILITY CRITERION OF THE ADVECTION TERM
 (FOR PURE FINITE-DIFFERENCE OPTION, MIXELM=0) 
 =  11.60    (WHEN MIN. R.F.=1)  AT K=  16, I=   1, J=  90


 TOTAL NUMBER OF POINT SOURCES/SINKS PRESENT IN THE FLOW MODEL =    30

 MAXIMUM STEPSIZE WHICH MEETS STABILITY CRITERION OF THE SINK & SOURCE TERM
 =  16.79    (WHEN MIN. R.F.=1)  AT K=  17, I=   1, J=  91

 MAXIMUM STEPSIZE WHICH MEETS STABILITY CRITERION OF THE DISPERSION TERM
 =  5.901    (WHEN MIN. R.F.=1)  AT K=  16, I=   1, J=  89
     1 CALLS TO GCG PACKAGE FOR TRANSPORT TIME STEP 130 IN FLOW TIME STEP   1 STRESS PERIOD   1
     4 TOTAL ITERATIONS
  MAXIMUM CONCENTRATION CHANGES FOR EACH ITERATION:
  MAX. CHANGE LAYER,ROW,COL MAX. CHANGE LAYER,ROW,COL MAX. CHANGE LAYER,ROW,COL MAX. CHANGE LAYER,ROW,COL MAX. CHANGE LAYER,ROW,COL
 ------------------------------------------------------------------------------------------------------------------------------------
   0.3320     ( 16,  1, 90)  0.7421E-03 ( 17,  1, 89)  0.1875E-04 ( 16,  1, 89)  0.1353E-06 ( 17,  1, 88)



 >>>>>>>>>>>>>>>>>>>>>>>>>>>>>>>>>>>>>>>>>>>>>>>>>>>>>>>FOR COMPONENT NO. 01<<<<<<<<<<<<<<<<<<<<<<<<<<<<<<<<<<<<<<<<<<<<<<<<<<<<<<<


                                            -------------------------------------------
                                                      TRANSPORT STEP NO.  130
                                            -------------------------------------------

 TOTAL ELAPSED TIME SINCE BEGINNING OF SIMULATION =   1118.057    D   
 .....................................................................

                     CUMMULATIVE MASS BUDGETS AT END OF TRANSPORT STEP  130, TIME STEP    1, STRESS PERIOD    1
                     ------------------------------------------------------------------------------------------

                                                             IN                           OUT
                                                      ----------------             ----------------
                               CONSTANT CONCENTRATION:    0.000000                    0.000000    
                                        CONSTANT HEAD:   0.1128909E+08              -0.1455523E+08
                                             RECHARGE:    0.000000                    0.000000    
                                MASS STORAGE (SOLUTE):   0.2361219E+08              -0.2034605E+08
                            ---------------------------------------------------------------------------
                                              [TOTAL]:   0.3490243E+08 KG           -0.3490242E+08 KG  

                                                          NET (IN - OUT):   0.9288730    
                                                   DISCREPANCY (PERCENT):   0.2661342E-05
0WARNING: NUMERICAL OSCILLATION ENCOUNTERED
 ONE OR MORE CELL CONCENTRATIONS LESS THAN CRHOREF
 SMALLEST DENSITY =  0.100E+04
 AT CELL (I,J,K) = (   1,  68,   6)

 
 SOLVING FOR HEAD 


     2 CALLS TO PCG ROUTINE FOR TIME STEP   1 IN STRESS PERIOD    1
     6 TOTAL ITERATIONS

 MAXIMUM HEAD CHANGE FOR EACH ITERATION (1 INDICATES THE FIRST INNER ITERATION):

    HEAD CHANGE    HEAD CHANGE    HEAD CHANGE    HEAD CHANGE    HEAD CHANGE 
   LAYER,ROW,COL  LAYER,ROW,COL  LAYER,ROW,COL  LAYER,ROW,COL  LAYER,ROW,COL
 ---------------------------------------------------------------------------
  1 -0.2725E-02  0 -0.2396E-02  0  0.2514E-02  0 -0.1236E-02  0 -0.8067E-03
   ( 23,  1, 72)  (  9,  1, 12)  ( 11,  1, 65)  ( 11,  1, 64)  ( 11,  1, 70)
  1  0.1678E-03
   ( 11,  1, 55)

 MAXIMUM RESIDUAL FOR EACH ITERATION (1 INDICATES THE FIRST INNER ITERATION):

    RESIDUAL       RESIDUAL       RESIDUAL       RESIDUAL       RESIDUAL    
   LAYER,ROW,COL  LAYER,ROW,COL  LAYER,ROW,COL  LAYER,ROW,COL  LAYER,ROW,COL
 ---------------------------------------------------------------------------
  1 -0.2906E+05  0 -0.2258E+05  0   1388.      0  -1242.      0  -991.6    
   ( 22,  1, 57)  ( 22,  1, 57)  ( 20,  1, 84)  ( 17,  1, 82)  ( 17,  1, 82)
  1  -752.4    
   ( 17,  1, 82)


 FLOW MODEL IS TRANSIENT
 FLOW MODEL CONTAINS CONSTANT-HEAD CELLS


 MAXIMUM STEPSIZE DURING WHICH ANY PARTICLE CANNOT MOVE MORE THAN ONE CELL
 =  20.67    (WHEN MIN. R.F.=1)  AT K=  18, I=   1, J=  91

 MAXIMUM STEPSIZE WHICH MEETS STABILITY CRITERION OF THE ADVECTION TERM
 (FOR PURE FINITE-DIFFERENCE OPTION, MIXELM=0) 
 =  11.54    (WHEN MIN. R.F.=1)  AT K=  16, I=   1, J=  90


 TOTAL NUMBER OF POINT SOURCES/SINKS PRESENT IN THE FLOW MODEL =    30

 MAXIMUM STEPSIZE WHICH MEETS STABILITY CRITERION OF THE SINK & SOURCE TERM
 =  16.70    (WHEN MIN. R.F.=1)  AT K=  17, I=   1, J=  91

 MAXIMUM STEPSIZE WHICH MEETS STABILITY CRITERION OF THE DISPERSION TERM
 =  5.881    (WHEN MIN. R.F.=1)  AT K=  16, I=   1, J=  89
     1 CALLS TO GCG PACKAGE FOR TRANSPORT TIME STEP 131 IN FLOW TIME STEP   1 STRESS PERIOD   1
     4 TOTAL ITERATIONS
0WARNING: NUMERICAL OSCILLATION ENCOUNTERED
 ONE OR MORE CELL CONCENTRATIONS LESS THAN CRHOREF
 SMALLEST DENSITY =  0.100E+04
 AT CELL (I,J,K) = (   1,  68,   6)

 
 SOLVING FOR HEAD 


     2 CALLS TO PCG ROUTINE FOR TIME STEP   1 IN STRESS PERIOD    1
     5 TOTAL ITERATIONS

 MAXIMUM HEAD CHANGE FOR EACH ITERATION (1 INDICATES THE FIRST INNER ITERATION):

    HEAD CHANGE    HEAD CHANGE    HEAD CHANGE    HEAD CHANGE    HEAD CHANGE 
   LAYER,ROW,COL  LAYER,ROW,COL  LAYER,ROW,COL  LAYER,ROW,COL  LAYER,ROW,COL
 ---------------------------------------------------------------------------
  1 -0.2697E-02  0 -0.2380E-02  0  0.2298E-02  0 -0.9255E-03  1 -0.6032E-03
   ( 23,  1, 72)  (  9,  1, 12)  ( 10,  1, 12)  ( 11,  1, 56)  ( 11,  1, 70)

 MAXIMUM RESIDUAL FOR EACH ITERATION (1 INDICATES THE FIRST INNER ITERATION):

    RESIDUAL       RESIDUAL       RESIDUAL       RESIDUAL       RESIDUAL    
   LAYER,ROW,COL  LAYER,ROW,COL  LAYER,ROW,COL  LAYER,ROW,COL  LAYER,ROW,COL
 ---------------------------------------------------------------------------
  1 -0.2870E+05  0 -0.2232E+05  0  -1721.      0   1561.      1   1334.    
   ( 22,  1, 57)  ( 22,  1, 57)  ( 19,  1, 83)  ( 22,  1, 83)  ( 22,  1, 83)


 FLOW MODEL IS TRANSIENT
 FLOW MODEL CONTAINS CONSTANT-HEAD CELLS


 MAXIMUM STEPSIZE DURING WHICH ANY PARTICLE CANNOT MOVE MORE THAN ONE CELL
 =  20.60    (WHEN MIN. R.F.=1)  AT K=  18, I=   1, J=  91

 MAXIMUM STEPSIZE WHICH MEETS STABILITY CRITERION OF THE ADVECTION TERM
 (FOR PURE FINITE-DIFFERENCE OPTION, MIXELM=0) 
 =  11.49    (WHEN MIN. R.F.=1)  AT K=  16, I=   1, J=  90


 TOTAL NUMBER OF POINT SOURCES/SINKS PRESENT IN THE FLOW MODEL =    30

 MAXIMUM STEPSIZE WHICH MEETS STABILITY CRITERION OF THE SINK & SOURCE TERM
 =  16.64    (WHEN MIN. R.F.=1)  AT K=  17, I=   1, J=  91

 MAXIMUM STEPSIZE WHICH MEETS STABILITY CRITERION OF THE DISPERSION TERM
 =  5.860    (WHEN MIN. R.F.=1)  AT K=  16, I=   1, J=  89
     1 CALLS TO GCG PACKAGE FOR TRANSPORT TIME STEP 132 IN FLOW TIME STEP   1 STRESS PERIOD   1
     4 TOTAL ITERATIONS
0WARNING: NUMERICAL OSCILLATION ENCOUNTERED
 ONE OR MORE CELL CONCENTRATIONS LESS THAN CRHOREF
 SMALLEST DENSITY =  0.100E+04
 AT CELL (I,J,K) = (   1,  68,   6)

 
 SOLVING FOR HEAD 


     2 CALLS TO PCG ROUTINE FOR TIME STEP   1 IN STRESS PERIOD    1
     5 TOTAL ITERATIONS

 MAXIMUM HEAD CHANGE FOR EACH ITERATION (1 INDICATES THE FIRST INNER ITERATION):

    HEAD CHANGE    HEAD CHANGE    HEAD CHANGE    HEAD CHANGE    HEAD CHANGE 
   LAYER,ROW,COL  LAYER,ROW,COL  LAYER,ROW,COL  LAYER,ROW,COL  LAYER,ROW,COL
 ---------------------------------------------------------------------------
  1 -0.2639E-02  0 -0.2347E-02  0  0.2270E-02  0 -0.9210E-03  1 -0.6153E-03
   ( 23,  1, 72)  (  9,  1, 12)  ( 10,  1, 12)  ( 11,  1, 57)  ( 11,  1, 70)

 MAXIMUM RESIDUAL FOR EACH ITERATION (1 INDICATES THE FIRST INNER ITERATION):

    RESIDUAL       RESIDUAL       RESIDUAL       RESIDUAL       RESIDUAL    
   LAYER,ROW,COL  LAYER,ROW,COL  LAYER,ROW,COL  LAYER,ROW,COL  LAYER,ROW,COL
 ---------------------------------------------------------------------------
  1 -0.2838E+05  0 -0.2189E+05  0  -1120.      0  -958.4      1  -796.1    
   ( 22,  1, 57)  ( 22,  1, 57)  ( 18,  1, 83)  ( 18,  1, 83)  ( 18,  1, 83)


 FLOW MODEL IS TRANSIENT
 FLOW MODEL CONTAINS CONSTANT-HEAD CELLS


 MAXIMUM STEPSIZE DURING WHICH ANY PARTICLE CANNOT MOVE MORE THAN ONE CELL
 =  20.52    (WHEN MIN. R.F.=1)  AT K=  18, I=   1, J=  91

 MAXIMUM STEPSIZE WHICH MEETS STABILITY CRITERION OF THE ADVECTION TERM
 (FOR PURE FINITE-DIFFERENCE OPTION, MIXELM=0) 
 =  11.45    (WHEN MIN. R.F.=1)  AT K=  16, I=   1, J=  90


 TOTAL NUMBER OF POINT SOURCES/SINKS PRESENT IN THE FLOW MODEL =    30

 MAXIMUM STEPSIZE WHICH MEETS STABILITY CRITERION OF THE SINK & SOURCE TERM
 =  16.58    (WHEN MIN. R.F.=1)  AT K=  17, I=   1, J=  91

 MAXIMUM STEPSIZE WHICH MEETS STABILITY CRITERION OF THE DISPERSION TERM
 =  5.842    (WHEN MIN. R.F.=1)  AT K=  16, I=   1, J=  89
     1 CALLS TO GCG PACKAGE FOR TRANSPORT TIME STEP 133 IN FLOW TIME STEP   1 STRESS PERIOD   1
     4 TOTAL ITERATIONS
0WARNING: NUMERICAL OSCILLATION ENCOUNTERED
 ONE OR MORE CELL CONCENTRATIONS LESS THAN CRHOREF
 SMALLEST DENSITY =  0.100E+04
 AT CELL (I,J,K) = (   1,  68,   6)

 
 SOLVING FOR HEAD 


     2 CALLS TO PCG ROUTINE FOR TIME STEP   1 IN STRESS PERIOD    1
     5 TOTAL ITERATIONS

 MAXIMUM HEAD CHANGE FOR EACH ITERATION (1 INDICATES THE FIRST INNER ITERATION):

    HEAD CHANGE    HEAD CHANGE    HEAD CHANGE    HEAD CHANGE    HEAD CHANGE 
   LAYER,ROW,COL  LAYER,ROW,COL  LAYER,ROW,COL  LAYER,ROW,COL  LAYER,ROW,COL
 ---------------------------------------------------------------------------
  1 -0.2613E-02  0 -0.2324E-02  0  0.2223E-02  0 -0.9263E-03  1 -0.6797E-03
   ( 23,  1, 72)  (  9,  1, 12)  ( 10,  1, 12)  ( 11,  1, 60)  ( 11,  1, 70)

 MAXIMUM RESIDUAL FOR EACH ITERATION (1 INDICATES THE FIRST INNER ITERATION):

    RESIDUAL       RESIDUAL       RESIDUAL       RESIDUAL       RESIDUAL    
   LAYER,ROW,COL  LAYER,ROW,COL  LAYER,ROW,COL  LAYER,ROW,COL  LAYER,ROW,COL
 ---------------------------------------------------------------------------
  1 -0.2787E+05  0 -0.2150E+05  0   1509.      0   1305.      1  -1056.    
   ( 22,  1, 57)  ( 22,  1, 57)  ( 21,  1, 84)  ( 21,  1, 84)  ( 17,  1, 84)


 FLOW MODEL IS TRANSIENT
 FLOW MODEL CONTAINS CONSTANT-HEAD CELLS


 MAXIMUM STEPSIZE DURING WHICH ANY PARTICLE CANNOT MOVE MORE THAN ONE CELL
 =  20.42    (WHEN MIN. R.F.=1)  AT K=  18, I=   1, J=  91

 MAXIMUM STEPSIZE WHICH MEETS STABILITY CRITERION OF THE ADVECTION TERM
 (FOR PURE FINITE-DIFFERENCE OPTION, MIXELM=0) 
 =  11.40    (WHEN MIN. R.F.=1)  AT K=  16, I=   1, J=  90


 TOTAL NUMBER OF POINT SOURCES/SINKS PRESENT IN THE FLOW MODEL =    30

 MAXIMUM STEPSIZE WHICH MEETS STABILITY CRITERION OF THE SINK & SOURCE TERM
 =  16.50    (WHEN MIN. R.F.=1)  AT K=  17, I=   1, J=  91

 MAXIMUM STEPSIZE WHICH MEETS STABILITY CRITERION OF THE DISPERSION TERM
 =  5.824    (WHEN MIN. R.F.=1)  AT K=  16, I=   1, J=  89
     1 CALLS TO GCG PACKAGE FOR TRANSPORT TIME STEP 134 IN FLOW TIME STEP   1 STRESS PERIOD   1
     4 TOTAL ITERATIONS
0WARNING: NUMERICAL OSCILLATION ENCOUNTERED
 ONE OR MORE CELL CONCENTRATIONS LESS THAN CRHOREF
 SMALLEST DENSITY =  0.100E+04
 AT CELL (I,J,K) = (   1,  68,   6)

 
 SOLVING FOR HEAD 


     2 CALLS TO PCG ROUTINE FOR TIME STEP   1 IN STRESS PERIOD    1
     6 TOTAL ITERATIONS

 MAXIMUM HEAD CHANGE FOR EACH ITERATION (1 INDICATES THE FIRST INNER ITERATION):

    HEAD CHANGE    HEAD CHANGE    HEAD CHANGE    HEAD CHANGE    HEAD CHANGE 
   LAYER,ROW,COL  LAYER,ROW,COL  LAYER,ROW,COL  LAYER,ROW,COL  LAYER,ROW,COL
 ---------------------------------------------------------------------------
  1 -0.2605E-02  0 -0.2363E-02  0  0.2306E-02  0 -0.1081E-02  0 -0.8581E-03
   ( 23,  1, 72)  (  9,  1, 12)  ( 11,  1, 61)  ( 11,  1, 60)  ( 11,  1, 70)
  1  0.2425E-03
   ( 11,  1, 65)

 MAXIMUM RESIDUAL FOR EACH ITERATION (1 INDICATES THE FIRST INNER ITERATION):

    RESIDUAL       RESIDUAL       RESIDUAL       RESIDUAL       RESIDUAL    
   LAYER,ROW,COL  LAYER,ROW,COL  LAYER,ROW,COL  LAYER,ROW,COL  LAYER,ROW,COL
 ---------------------------------------------------------------------------
  1 -0.2716E+05  0 -0.2067E+05  0   1955.      0   1873.      0   1433.    
   ( 22,  1, 57)  ( 22,  1, 57)  ( 22,  1, 85)  ( 22,  1, 85)  ( 22,  1, 85)
  1   1030.    
   ( 22,  1, 85)


 FLOW MODEL IS TRANSIENT
 FLOW MODEL CONTAINS CONSTANT-HEAD CELLS


 MAXIMUM STEPSIZE DURING WHICH ANY PARTICLE CANNOT MOVE MORE THAN ONE CELL
 =  20.36    (WHEN MIN. R.F.=1)  AT K=  18, I=   1, J=  91

 MAXIMUM STEPSIZE WHICH MEETS STABILITY CRITERION OF THE ADVECTION TERM
 (FOR PURE FINITE-DIFFERENCE OPTION, MIXELM=0) 
 =  11.35    (WHEN MIN. R.F.=1)  AT K=  16, I=   1, J=  90


 TOTAL NUMBER OF POINT SOURCES/SINKS PRESENT IN THE FLOW MODEL =    30

 MAXIMUM STEPSIZE WHICH MEETS STABILITY CRITERION OF THE SINK & SOURCE TERM
 =  16.44    (WHEN MIN. R.F.=1)  AT K=  17, I=   1, J=  91

 MAXIMUM STEPSIZE WHICH MEETS STABILITY CRITERION OF THE DISPERSION TERM
 =  5.802    (WHEN MIN. R.F.=1)  AT K=  16, I=   1, J=  89
     1 CALLS TO GCG PACKAGE FOR TRANSPORT TIME STEP 135 IN FLOW TIME STEP   1 STRESS PERIOD   1
     4 TOTAL ITERATIONS
  MAXIMUM CONCENTRATION CHANGES FOR EACH ITERATION:
  MAX. CHANGE LAYER,ROW,COL MAX. CHANGE LAYER,ROW,COL MAX. CHANGE LAYER,ROW,COL MAX. CHANGE LAYER,ROW,COL MAX. CHANGE LAYER,ROW,COL
 ------------------------------------------------------------------------------------------------------------------------------------
   0.3318     ( 16,  1, 90)  0.7384E-03 ( 17,  1, 89)  0.1861E-04 ( 16,  1, 89)  0.1367E-06 ( 17,  1, 88)
0WARNING: NUMERICAL OSCILLATION ENCOUNTERED
 ONE OR MORE CELL CONCENTRATIONS LESS THAN CRHOREF
 SMALLEST DENSITY =  0.100E+04
 AT CELL (I,J,K) = (   1,  68,   6)

 
 SOLVING FOR HEAD 


     2 CALLS TO PCG ROUTINE FOR TIME STEP   1 IN STRESS PERIOD    1
     6 TOTAL ITERATIONS

 MAXIMUM HEAD CHANGE FOR EACH ITERATION (1 INDICATES THE FIRST INNER ITERATION):

    HEAD CHANGE    HEAD CHANGE    HEAD CHANGE    HEAD CHANGE    HEAD CHANGE 
   LAYER,ROW,COL  LAYER,ROW,COL  LAYER,ROW,COL  LAYER,ROW,COL  LAYER,ROW,COL
 ---------------------------------------------------------------------------
  1 -0.2581E-02  0 -0.2283E-02  0  0.2478E-02  0 -0.1189E-02  0 -0.8079E-03
   ( 23,  1, 72)  (  9,  1, 12)  ( 11,  1, 65)  ( 11,  1, 65)  ( 11,  1, 70)
  1  0.2233E-03
   ( 11,  1, 56)

 MAXIMUM RESIDUAL FOR EACH ITERATION (1 INDICATES THE FIRST INNER ITERATION):

    RESIDUAL       RESIDUAL       RESIDUAL       RESIDUAL       RESIDUAL    
   LAYER,ROW,COL  LAYER,ROW,COL  LAYER,ROW,COL  LAYER,ROW,COL  LAYER,ROW,COL
 ---------------------------------------------------------------------------
  1 -0.2797E+05  0 -0.2168E+05  0   1408.      0   1267.      0   954.0    
   ( 22,  1, 57)  ( 22,  1, 57)  ( 22,  1, 83)  ( 22,  1, 83)  ( 17,  1, 89)
  1   752.1    
   ( 17,  1, 89)


 FLOW MODEL IS TRANSIENT
 FLOW MODEL CONTAINS CONSTANT-HEAD CELLS


 MAXIMUM STEPSIZE DURING WHICH ANY PARTICLE CANNOT MOVE MORE THAN ONE CELL
 =  20.23    (WHEN MIN. R.F.=1)  AT K=  18, I=   1, J=  91

 MAXIMUM STEPSIZE WHICH MEETS STABILITY CRITERION OF THE ADVECTION TERM
 (FOR PURE FINITE-DIFFERENCE OPTION, MIXELM=0) 
 =  11.30    (WHEN MIN. R.F.=1)  AT K=  16, I=   1, J=  90


 TOTAL NUMBER OF POINT SOURCES/SINKS PRESENT IN THE FLOW MODEL =    30

 MAXIMUM STEPSIZE WHICH MEETS STABILITY CRITERION OF THE SINK & SOURCE TERM
 =  16.34    (WHEN MIN. R.F.=1)  AT K=  17, I=   1, J=  91

 MAXIMUM STEPSIZE WHICH MEETS STABILITY CRITERION OF THE DISPERSION TERM
 =  5.786    (WHEN MIN. R.F.=1)  AT K=  16, I=   1, J=  89
     1 CALLS TO GCG PACKAGE FOR TRANSPORT TIME STEP 136 IN FLOW TIME STEP   1 STRESS PERIOD   1
     4 TOTAL ITERATIONS
0WARNING: NUMERICAL OSCILLATION ENCOUNTERED
 ONE OR MORE CELL CONCENTRATIONS LESS THAN CRHOREF
 SMALLEST DENSITY =  0.100E+04
 AT CELL (I,J,K) = (   1,  68,   6)

 
 SOLVING FOR HEAD 


     2 CALLS TO PCG ROUTINE FOR TIME STEP   1 IN STRESS PERIOD    1
     5 TOTAL ITERATIONS

 MAXIMUM HEAD CHANGE FOR EACH ITERATION (1 INDICATES THE FIRST INNER ITERATION):

    HEAD CHANGE    HEAD CHANGE    HEAD CHANGE    HEAD CHANGE    HEAD CHANGE 
   LAYER,ROW,COL  LAYER,ROW,COL  LAYER,ROW,COL  LAYER,ROW,COL  LAYER,ROW,COL
 ---------------------------------------------------------------------------
  1 -0.2554E-02  0 -0.2262E-02  0  0.2189E-02  0 -0.9391E-03  1 -0.6435E-03
   ( 23,  1, 72)  (  9,  1, 12)  ( 10,  1, 12)  ( 11,  1, 56)  ( 11,  1, 70)

 MAXIMUM RESIDUAL FOR EACH ITERATION (1 INDICATES THE FIRST INNER ITERATION):

    RESIDUAL       RESIDUAL       RESIDUAL       RESIDUAL       RESIDUAL    
   LAYER,ROW,COL  LAYER,ROW,COL  LAYER,ROW,COL  LAYER,ROW,COL  LAYER,ROW,COL
 ---------------------------------------------------------------------------
  1 -0.2722E+05  0 -0.2103E+05  0  -1304.      0  -1170.      1  -962.8    
   ( 22,  1, 57)  ( 22,  1, 57)  ( 18,  1, 84)  ( 18,  1, 84)  ( 18,  1, 84)


 FLOW MODEL IS TRANSIENT
 FLOW MODEL CONTAINS CONSTANT-HEAD CELLS


 MAXIMUM STEPSIZE DURING WHICH ANY PARTICLE CANNOT MOVE MORE THAN ONE CELL
 =  20.14    (WHEN MIN. R.F.=1)  AT K=  18, I=   1, J=  91

 MAXIMUM STEPSIZE WHICH MEETS STABILITY CRITERION OF THE ADVECTION TERM
 (FOR PURE FINITE-DIFFERENCE OPTION, MIXELM=0) 
 =  11.26    (WHEN MIN. R.F.=1)  AT K=  16, I=   1, J=  90


 TOTAL NUMBER OF POINT SOURCES/SINKS PRESENT IN THE FLOW MODEL =    30

 MAXIMUM STEPSIZE WHICH MEETS STABILITY CRITERION OF THE SINK & SOURCE TERM
 =  16.28    (WHEN MIN. R.F.=1)  AT K=  17, I=   1, J=  91

 MAXIMUM STEPSIZE WHICH MEETS STABILITY CRITERION OF THE DISPERSION TERM
 =  5.771    (WHEN MIN. R.F.=1)  AT K=  16, I=   1, J=  89
     1 CALLS TO GCG PACKAGE FOR TRANSPORT TIME STEP 137 IN FLOW TIME STEP   1 STRESS PERIOD   1
     4 TOTAL ITERATIONS
0WARNING: NUMERICAL OSCILLATION ENCOUNTERED
 ONE OR MORE CELL CONCENTRATIONS LESS THAN CRHOREF
 SMALLEST DENSITY =  0.100E+04
 AT CELL (I,J,K) = (   1,  68,   6)

 
 SOLVING FOR HEAD 


     2 CALLS TO PCG ROUTINE FOR TIME STEP   1 IN STRESS PERIOD    1
     5 TOTAL ITERATIONS

 MAXIMUM HEAD CHANGE FOR EACH ITERATION (1 INDICATES THE FIRST INNER ITERATION):

    HEAD CHANGE    HEAD CHANGE    HEAD CHANGE    HEAD CHANGE    HEAD CHANGE 
   LAYER,ROW,COL  LAYER,ROW,COL  LAYER,ROW,COL  LAYER,ROW,COL  LAYER,ROW,COL
 ---------------------------------------------------------------------------
  1 -0.2522E-02  0 -0.2295E-02  0  0.2220E-02  0 -0.9593E-03  1 -0.7085E-03
   ( 23,  1, 72)  (  9,  1, 12)  ( 10,  1, 12)  ( 11,  1, 57)  ( 11,  1, 70)

 MAXIMUM RESIDUAL FOR EACH ITERATION (1 INDICATES THE FIRST INNER ITERATION):

    RESIDUAL       RESIDUAL       RESIDUAL       RESIDUAL       RESIDUAL    
   LAYER,ROW,COL  LAYER,ROW,COL  LAYER,ROW,COL  LAYER,ROW,COL  LAYER,ROW,COL
 ---------------------------------------------------------------------------
  1 -0.2615E+05  0 -0.1981E+05  0   1965.      0   1687.      1   1325.    
   ( 22,  1, 57)  ( 22,  1, 57)  ( 20,  1, 84)  ( 20,  1, 84)  ( 22,  1, 85)


 FLOW MODEL IS TRANSIENT
 FLOW MODEL CONTAINS CONSTANT-HEAD CELLS


 MAXIMUM STEPSIZE DURING WHICH ANY PARTICLE CANNOT MOVE MORE THAN ONE CELL
 =  20.07    (WHEN MIN. R.F.=1)  AT K=  18, I=   1, J=  91

 MAXIMUM STEPSIZE WHICH MEETS STABILITY CRITERION OF THE ADVECTION TERM
 (FOR PURE FINITE-DIFFERENCE OPTION, MIXELM=0) 
 =  11.21    (WHEN MIN. R.F.=1)  AT K=  16, I=   1, J=  90


 TOTAL NUMBER OF POINT SOURCES/SINKS PRESENT IN THE FLOW MODEL =    30

 MAXIMUM STEPSIZE WHICH MEETS STABILITY CRITERION OF THE SINK & SOURCE TERM
 =  16.22    (WHEN MIN. R.F.=1)  AT K=  17, I=   1, J=  91

 MAXIMUM STEPSIZE WHICH MEETS STABILITY CRITERION OF THE DISPERSION TERM
 =  5.750    (WHEN MIN. R.F.=1)  AT K=  16, I=   1, J=  89
     1 CALLS TO GCG PACKAGE FOR TRANSPORT TIME STEP 138 IN FLOW TIME STEP   1 STRESS PERIOD   1
     4 TOTAL ITERATIONS
0WARNING: NUMERICAL OSCILLATION ENCOUNTERED
 ONE OR MORE CELL CONCENTRATIONS LESS THAN CRHOREF
 SMALLEST DENSITY =  0.100E+04
 AT CELL (I,J,K) = (   1,  68,   6)

 
 SOLVING FOR HEAD 


     2 CALLS TO PCG ROUTINE FOR TIME STEP   1 IN STRESS PERIOD    1
     6 TOTAL ITERATIONS

 MAXIMUM HEAD CHANGE FOR EACH ITERATION (1 INDICATES THE FIRST INNER ITERATION):

    HEAD CHANGE    HEAD CHANGE    HEAD CHANGE    HEAD CHANGE    HEAD CHANGE 
   LAYER,ROW,COL  LAYER,ROW,COL  LAYER,ROW,COL  LAYER,ROW,COL  LAYER,ROW,COL
 ---------------------------------------------------------------------------
  1 -0.2509E-02  0 -0.2266E-02  0  0.2197E-02  0 -0.1073E-02  0 -0.8952E-03
   ( 23,  1, 72)  (  9,  1, 12)  ( 10,  1, 12)  ( 11,  1, 58)  ( 11,  1, 70)
  1  0.2612E-03
   ( 11,  1, 65)

 MAXIMUM RESIDUAL FOR EACH ITERATION (1 INDICATES THE FIRST INNER ITERATION):

    RESIDUAL       RESIDUAL       RESIDUAL       RESIDUAL       RESIDUAL    
   LAYER,ROW,COL  LAYER,ROW,COL  LAYER,ROW,COL  LAYER,ROW,COL  LAYER,ROW,COL
 ---------------------------------------------------------------------------
  1 -0.2604E+05  0 -0.1978E+05  0   1488.      0  -1402.      0   1054.    
   ( 22,  1, 57)  ( 22,  1, 57)  ( 19,  1, 87)  ( 22,  1, 84)  ( 22,  1, 88)
  1  -786.7    
   ( 20,  1, 86)


 FLOW MODEL IS TRANSIENT
 FLOW MODEL CONTAINS CONSTANT-HEAD CELLS


 MAXIMUM STEPSIZE DURING WHICH ANY PARTICLE CANNOT MOVE MORE THAN ONE CELL
 =  19.96    (WHEN MIN. R.F.=1)  AT K=  18, I=   1, J=  91

 MAXIMUM STEPSIZE WHICH MEETS STABILITY CRITERION OF THE ADVECTION TERM
 (FOR PURE FINITE-DIFFERENCE OPTION, MIXELM=0) 
 =  11.16    (WHEN MIN. R.F.=1)  AT K=  16, I=   1, J=  90


 TOTAL NUMBER OF POINT SOURCES/SINKS PRESENT IN THE FLOW MODEL =    30

 MAXIMUM STEPSIZE WHICH MEETS STABILITY CRITERION OF THE SINK & SOURCE TERM
 =  16.13    (WHEN MIN. R.F.=1)  AT K=  17, I=   1, J=  91

 MAXIMUM STEPSIZE WHICH MEETS STABILITY CRITERION OF THE DISPERSION TERM
 =  5.731    (WHEN MIN. R.F.=1)  AT K=  16, I=   1, J=  89
     1 CALLS TO GCG PACKAGE FOR TRANSPORT TIME STEP 139 IN FLOW TIME STEP   1 STRESS PERIOD   1
     4 TOTAL ITERATIONS
0WARNING: NUMERICAL OSCILLATION ENCOUNTERED
 ONE OR MORE CELL CONCENTRATIONS LESS THAN CRHOREF
 SMALLEST DENSITY =  0.100E+04
 AT CELL (I,J,K) = (   1,  68,   6)

 
 SOLVING FOR HEAD 


     2 CALLS TO PCG ROUTINE FOR TIME STEP   1 IN STRESS PERIOD    1
     6 TOTAL ITERATIONS

 MAXIMUM HEAD CHANGE FOR EACH ITERATION (1 INDICATES THE FIRST INNER ITERATION):

    HEAD CHANGE    HEAD CHANGE    HEAD CHANGE    HEAD CHANGE    HEAD CHANGE 
   LAYER,ROW,COL  LAYER,ROW,COL  LAYER,ROW,COL  LAYER,ROW,COL  LAYER,ROW,COL
 ---------------------------------------------------------------------------
  1 -0.2497E-02  0 -0.2236E-02  0  0.2340E-02  0 -0.1160E-02  0 -0.8350E-03
   ( 23,  1, 72)  (  9,  1, 12)  ( 11,  1, 65)  ( 11,  1, 64)  ( 11,  1, 70)
  1  0.2381E-03
   ( 11,  1, 55)

 MAXIMUM RESIDUAL FOR EACH ITERATION (1 INDICATES THE FIRST INNER ITERATION):

    RESIDUAL       RESIDUAL       RESIDUAL       RESIDUAL       RESIDUAL    
   LAYER,ROW,COL  LAYER,ROW,COL  LAYER,ROW,COL  LAYER,ROW,COL  LAYER,ROW,COL
 ---------------------------------------------------------------------------
  1 -0.2609E+05  0 -0.1994E+05  0   1528.      0   1367.      0   977.0    
   ( 22,  1, 57)  ( 22,  1, 57)  ( 17,  1, 87)  ( 17,  1, 87)  ( 17,  1, 87)
  1   746.9    
   ( 17,  1, 87)


 FLOW MODEL IS TRANSIENT
 FLOW MODEL CONTAINS CONSTANT-HEAD CELLS


 MAXIMUM STEPSIZE DURING WHICH ANY PARTICLE CANNOT MOVE MORE THAN ONE CELL
 =  19.86    (WHEN MIN. R.F.=1)  AT K=  18, I=   1, J=  91

 MAXIMUM STEPSIZE WHICH MEETS STABILITY CRITERION OF THE ADVECTION TERM
 (FOR PURE FINITE-DIFFERENCE OPTION, MIXELM=0) 
 =  11.12    (WHEN MIN. R.F.=1)  AT K=  16, I=   1, J=  90


 TOTAL NUMBER OF POINT SOURCES/SINKS PRESENT IN THE FLOW MODEL =    30

 MAXIMUM STEPSIZE WHICH MEETS STABILITY CRITERION OF THE SINK & SOURCE TERM
 =  16.06    (WHEN MIN. R.F.=1)  AT K=  17, I=   1, J=  91

 MAXIMUM STEPSIZE WHICH MEETS STABILITY CRITERION OF THE DISPERSION TERM
 =  5.718    (WHEN MIN. R.F.=1)  AT K=  16, I=   1, J=  89
     1 CALLS TO GCG PACKAGE FOR TRANSPORT TIME STEP 140 IN FLOW TIME STEP   1 STRESS PERIOD   1
     4 TOTAL ITERATIONS
  MAXIMUM CONCENTRATION CHANGES FOR EACH ITERATION:
  MAX. CHANGE LAYER,ROW,COL MAX. CHANGE LAYER,ROW,COL MAX. CHANGE LAYER,ROW,COL MAX. CHANGE LAYER,ROW,COL MAX. CHANGE LAYER,ROW,COL
 ------------------------------------------------------------------------------------------------------------------------------------
   0.3316     ( 16,  1, 90)  0.7313E-03 ( 17,  1, 89)  0.1839E-04 ( 16,  1, 89)  0.1333E-06 ( 17,  1, 88)



 >>>>>>>>>>>>>>>>>>>>>>>>>>>>>>>>>>>>>>>>>>>>>>>>>>>>>>>FOR COMPONENT NO. 01<<<<<<<<<<<<<<<<<<<<<<<<<<<<<<<<<<<<<<<<<<<<<<<<<<<<<<<


                                            -------------------------------------------
                                                      TRANSPORT STEP NO.  140
                                            -------------------------------------------

 TOTAL ELAPSED TIME SINCE BEGINNING OF SIMULATION =   1174.936    D   
 .....................................................................

                     CUMMULATIVE MASS BUDGETS AT END OF TRANSPORT STEP  140, TIME STEP    1, STRESS PERIOD    1
                     ------------------------------------------------------------------------------------------

                                                             IN                           OUT
                                                      ----------------             ----------------
                               CONSTANT CONCENTRATION:    0.000000                    0.000000    
                                        CONSTANT HEAD:   0.1305088E+08              -0.1633933E+08
                                             RECHARGE:    0.000000                    0.000000    
                                MASS STORAGE (SOLUTE):   0.2386088E+08              -0.2057243E+08
                            ---------------------------------------------------------------------------
                                              [TOTAL]:   0.3691291E+08 KG           -0.3691291E+08 KG  

                                                          NET (IN - OUT):   0.9298779    
                                                   DISCREPANCY (PERCENT):   0.2519113E-05
0WARNING: NUMERICAL OSCILLATION ENCOUNTERED
 ONE OR MORE CELL CONCENTRATIONS LESS THAN CRHOREF
 SMALLEST DENSITY =  0.100E+04
 AT CELL (I,J,K) = (   1,  68,   6)

 
 SOLVING FOR HEAD 


     2 CALLS TO PCG ROUTINE FOR TIME STEP   1 IN STRESS PERIOD    1
     5 TOTAL ITERATIONS

 MAXIMUM HEAD CHANGE FOR EACH ITERATION (1 INDICATES THE FIRST INNER ITERATION):

    HEAD CHANGE    HEAD CHANGE    HEAD CHANGE    HEAD CHANGE    HEAD CHANGE 
   LAYER,ROW,COL  LAYER,ROW,COL  LAYER,ROW,COL  LAYER,ROW,COL  LAYER,ROW,COL
 ---------------------------------------------------------------------------
  1 -0.2480E-02  0 -0.2217E-02  0  0.2143E-02  0 -0.9115E-03  1 -0.6278E-03
   ( 23,  1, 72)  (  9,  1, 12)  ( 10,  1, 12)  ( 11,  1, 56)  ( 11,  1, 70)

 MAXIMUM RESIDUAL FOR EACH ITERATION (1 INDICATES THE FIRST INNER ITERATION):

    RESIDUAL       RESIDUAL       RESIDUAL       RESIDUAL       RESIDUAL    
   LAYER,ROW,COL  LAYER,ROW,COL  LAYER,ROW,COL  LAYER,ROW,COL  LAYER,ROW,COL
 ---------------------------------------------------------------------------
  1 -0.2537E+05  0 -0.1940E+05  0   1600.      0   1448.      1   1159.    
   ( 22,  1, 57)  ( 22,  1, 57)  ( 21,  1, 84)  ( 21,  1, 84)  ( 21,  1, 84)


 FLOW MODEL IS TRANSIENT
 FLOW MODEL CONTAINS CONSTANT-HEAD CELLS


 MAXIMUM STEPSIZE DURING WHICH ANY PARTICLE CANNOT MOVE MORE THAN ONE CELL
 =  19.76    (WHEN MIN. R.F.=1)  AT K=  18, I=   1, J=  91

 MAXIMUM STEPSIZE WHICH MEETS STABILITY CRITERION OF THE ADVECTION TERM
 (FOR PURE FINITE-DIFFERENCE OPTION, MIXELM=0) 
 =  11.07    (WHEN MIN. R.F.=1)  AT K=  16, I=   1, J=  90


 TOTAL NUMBER OF POINT SOURCES/SINKS PRESENT IN THE FLOW MODEL =    30

 MAXIMUM STEPSIZE WHICH MEETS STABILITY CRITERION OF THE SINK & SOURCE TERM
 =  15.99    (WHEN MIN. R.F.=1)  AT K=  17, I=   1, J=  91

 MAXIMUM STEPSIZE WHICH MEETS STABILITY CRITERION OF THE DISPERSION TERM
 =  5.702    (WHEN MIN. R.F.=1)  AT K=  16, I=   1, J=  89
     1 CALLS TO GCG PACKAGE FOR TRANSPORT TIME STEP 141 IN FLOW TIME STEP   1 STRESS PERIOD   1
     4 TOTAL ITERATIONS
0WARNING: NUMERICAL OSCILLATION ENCOUNTERED
 ONE OR MORE CELL CONCENTRATIONS LESS THAN CRHOREF
 SMALLEST DENSITY =  0.100E+04
 AT CELL (I,J,K) = (   1,  68,   6)

 
 SOLVING FOR HEAD 


     2 CALLS TO PCG ROUTINE FOR TIME STEP   1 IN STRESS PERIOD    1
     5 TOTAL ITERATIONS

 MAXIMUM HEAD CHANGE FOR EACH ITERATION (1 INDICATES THE FIRST INNER ITERATION):

    HEAD CHANGE    HEAD CHANGE    HEAD CHANGE    HEAD CHANGE    HEAD CHANGE 
   LAYER,ROW,COL  LAYER,ROW,COL  LAYER,ROW,COL  LAYER,ROW,COL  LAYER,ROW,COL
 ---------------------------------------------------------------------------
  1 -0.2414E-02  0 -0.2231E-02  0  0.2174E-02  0 -0.9984E-03  1 -0.6903E-03
   ( 23,  1, 72)  (  9,  1, 12)  ( 10,  1, 12)  ( 11,  1, 56)  ( 11,  1, 70)

 MAXIMUM RESIDUAL FOR EACH ITERATION (1 INDICATES THE FIRST INNER ITERATION):

    RESIDUAL       RESIDUAL       RESIDUAL       RESIDUAL       RESIDUAL    
   LAYER,ROW,COL  LAYER,ROW,COL  LAYER,ROW,COL  LAYER,ROW,COL  LAYER,ROW,COL
 ---------------------------------------------------------------------------
  1 -0.2486E+05  0 -0.1856E+05  0   1832.      0   1764.      1   1385.    
   ( 22,  1, 57)  ( 22,  1, 57)  ( 22,  1, 85)  ( 22,  1, 85)  ( 22,  1, 85)


 FLOW MODEL IS TRANSIENT
 FLOW MODEL CONTAINS CONSTANT-HEAD CELLS


 MAXIMUM STEPSIZE DURING WHICH ANY PARTICLE CANNOT MOVE MORE THAN ONE CELL
 =  19.71    (WHEN MIN. R.F.=1)  AT K=  18, I=   1, J=  91

 MAXIMUM STEPSIZE WHICH MEETS STABILITY CRITERION OF THE ADVECTION TERM
 (FOR PURE FINITE-DIFFERENCE OPTION, MIXELM=0) 
 =  11.03    (WHEN MIN. R.F.=1)  AT K=  16, I=   1, J=  90


 TOTAL NUMBER OF POINT SOURCES/SINKS PRESENT IN THE FLOW MODEL =    30

 MAXIMUM STEPSIZE WHICH MEETS STABILITY CRITERION OF THE SINK & SOURCE TERM
 =  15.94    (WHEN MIN. R.F.=1)  AT K=  17, I=   1, J=  91

 MAXIMUM STEPSIZE WHICH MEETS STABILITY CRITERION OF THE DISPERSION TERM
 =  5.680    (WHEN MIN. R.F.=1)  AT K=  16, I=   1, J=  89
     1 CALLS TO GCG PACKAGE FOR TRANSPORT TIME STEP 142 IN FLOW TIME STEP   1 STRESS PERIOD   1
     4 TOTAL ITERATIONS
0WARNING: NUMERICAL OSCILLATION ENCOUNTERED
 ONE OR MORE CELL CONCENTRATIONS LESS THAN CRHOREF
 SMALLEST DENSITY =  0.100E+04
 AT CELL (I,J,K) = (   1,  68,   6)

 
 SOLVING FOR HEAD 


     2 CALLS TO PCG ROUTINE FOR TIME STEP   1 IN STRESS PERIOD    1
     6 TOTAL ITERATIONS

 MAXIMUM HEAD CHANGE FOR EACH ITERATION (1 INDICATES THE FIRST INNER ITERATION):

    HEAD CHANGE    HEAD CHANGE    HEAD CHANGE    HEAD CHANGE    HEAD CHANGE 
   LAYER,ROW,COL  LAYER,ROW,COL  LAYER,ROW,COL  LAYER,ROW,COL  LAYER,ROW,COL
 ---------------------------------------------------------------------------
  1 -0.2440E-02  0 -0.2205E-02  0  0.2141E-02  0 -0.1011E-02  0 -0.9306E-03
   ( 23,  1, 72)  (  9,  1, 12)  ( 10,  1, 12)  ( 11,  1, 58)  ( 11,  1, 70)
  1  0.3051E-03
   ( 11,  1, 65)

 MAXIMUM RESIDUAL FOR EACH ITERATION (1 INDICATES THE FIRST INNER ITERATION):

    RESIDUAL       RESIDUAL       RESIDUAL       RESIDUAL       RESIDUAL    
   LAYER,ROW,COL  LAYER,ROW,COL  LAYER,ROW,COL  LAYER,ROW,COL  LAYER,ROW,COL
 ---------------------------------------------------------------------------
  1 -0.2424E+05  0 -0.1825E+05  0   1958.      0  -1839.      0   1399.    
   ( 22,  1, 57)  ( 22,  1, 57)  ( 17,  1, 89)  ( 22,  1, 87)  ( 17,  1, 89)
  1   1027.    
   ( 17,  1, 89)


 FLOW MODEL IS TRANSIENT
 FLOW MODEL CONTAINS CONSTANT-HEAD CELLS


 MAXIMUM STEPSIZE DURING WHICH ANY PARTICLE CANNOT MOVE MORE THAN ONE CELL
 =  19.60    (WHEN MIN. R.F.=1)  AT K=  18, I=   1, J=  91

 MAXIMUM STEPSIZE WHICH MEETS STABILITY CRITERION OF THE ADVECTION TERM
 (FOR PURE FINITE-DIFFERENCE OPTION, MIXELM=0) 
 =  10.99    (WHEN MIN. R.F.=1)  AT K=  16, I=   1, J=  90


 TOTAL NUMBER OF POINT SOURCES/SINKS PRESENT IN THE FLOW MODEL =    30

 MAXIMUM STEPSIZE WHICH MEETS STABILITY CRITERION OF THE SINK & SOURCE TERM
 =  15.86    (WHEN MIN. R.F.=1)  AT K=  17, I=   1, J=  91

 MAXIMUM STEPSIZE WHICH MEETS STABILITY CRITERION OF THE DISPERSION TERM
 =  5.666    (WHEN MIN. R.F.=1)  AT K=  16, I=   1, J=  89
     1 CALLS TO GCG PACKAGE FOR TRANSPORT TIME STEP 143 IN FLOW TIME STEP   1 STRESS PERIOD   1
     4 TOTAL ITERATIONS
0WARNING: NUMERICAL OSCILLATION ENCOUNTERED
 ONE OR MORE CELL CONCENTRATIONS LESS THAN CRHOREF
 SMALLEST DENSITY =  0.100E+04
 AT CELL (I,J,K) = (   1,  68,   6)

 
 SOLVING FOR HEAD 


     2 CALLS TO PCG ROUTINE FOR TIME STEP   1 IN STRESS PERIOD    1
     6 TOTAL ITERATIONS

 MAXIMUM HEAD CHANGE FOR EACH ITERATION (1 INDICATES THE FIRST INNER ITERATION):

    HEAD CHANGE    HEAD CHANGE    HEAD CHANGE    HEAD CHANGE    HEAD CHANGE 
   LAYER,ROW,COL  LAYER,ROW,COL  LAYER,ROW,COL  LAYER,ROW,COL  LAYER,ROW,COL
 ---------------------------------------------------------------------------
  1 -0.2445E-02  0 -0.2214E-02  0  0.2213E-02  0 -0.1127E-02  0 -0.8366E-03
   ( 23,  1, 72)  (  9,  1, 12)  ( 11,  1, 65)  ( 11,  1, 64)  ( 11,  1, 70)
  1  0.2582E-03
   ( 11,  1, 55)

 MAXIMUM RESIDUAL FOR EACH ITERATION (1 INDICATES THE FIRST INNER ITERATION):

    RESIDUAL       RESIDUAL       RESIDUAL       RESIDUAL       RESIDUAL    
   LAYER,ROW,COL  LAYER,ROW,COL  LAYER,ROW,COL  LAYER,ROW,COL  LAYER,ROW,COL
 ---------------------------------------------------------------------------
  1 -0.2398E+05  0 -0.1806E+05  0  -1840.      0  -1501.      0  -1010.    
   ( 22,  1, 57)  ( 22,  1, 57)  ( 18,  1, 84)  ( 18,  1, 84)  ( 18,  1, 84)
  1  -840.1    
   ( 18,  1, 84)


 FLOW MODEL IS TRANSIENT
 FLOW MODEL CONTAINS CONSTANT-HEAD CELLS


 MAXIMUM STEPSIZE DURING WHICH ANY PARTICLE CANNOT MOVE MORE THAN ONE CELL
 =  19.49    (WHEN MIN. R.F.=1)  AT K=  18, I=   1, J=  91

 MAXIMUM STEPSIZE WHICH MEETS STABILITY CRITERION OF THE ADVECTION TERM
 (FOR PURE FINITE-DIFFERENCE OPTION, MIXELM=0) 
 =  10.94    (WHEN MIN. R.F.=1)  AT K=  16, I=   1, J=  90


 TOTAL NUMBER OF POINT SOURCES/SINKS PRESENT IN THE FLOW MODEL =    30

 MAXIMUM STEPSIZE WHICH MEETS STABILITY CRITERION OF THE SINK & SOURCE TERM
 =  15.78    (WHEN MIN. R.F.=1)  AT K=  17, I=   1, J=  91

 MAXIMUM STEPSIZE WHICH MEETS STABILITY CRITERION OF THE DISPERSION TERM
 =  5.654    (WHEN MIN. R.F.=1)  AT K=  16, I=   1, J=  89
     1 CALLS TO GCG PACKAGE FOR TRANSPORT TIME STEP 144 IN FLOW TIME STEP   1 STRESS PERIOD   1
     4 TOTAL ITERATIONS
0WARNING: NUMERICAL OSCILLATION ENCOUNTERED
 ONE OR MORE CELL CONCENTRATIONS LESS THAN CRHOREF
 SMALLEST DENSITY =  0.100E+04
 AT CELL (I,J,K) = (   1,  68,   6)

 
 SOLVING FOR HEAD 


     2 CALLS TO PCG ROUTINE FOR TIME STEP   1 IN STRESS PERIOD    1
     5 TOTAL ITERATIONS

 MAXIMUM HEAD CHANGE FOR EACH ITERATION (1 INDICATES THE FIRST INNER ITERATION):

    HEAD CHANGE    HEAD CHANGE    HEAD CHANGE    HEAD CHANGE    HEAD CHANGE 
   LAYER,ROW,COL  LAYER,ROW,COL  LAYER,ROW,COL  LAYER,ROW,COL  LAYER,ROW,COL
 ---------------------------------------------------------------------------
  1 -0.2374E-02  0 -0.2155E-02  0  0.2092E-02  0 -0.8848E-03  1 -0.5975E-03
   ( 23,  1, 72)  ( 10,  1, 12)  ( 10,  1, 12)  ( 11,  1, 55)  ( 11,  1, 70)

 MAXIMUM RESIDUAL FOR EACH ITERATION (1 INDICATES THE FIRST INNER ITERATION):

    RESIDUAL       RESIDUAL       RESIDUAL       RESIDUAL       RESIDUAL    
   LAYER,ROW,COL  LAYER,ROW,COL  LAYER,ROW,COL  LAYER,ROW,COL  LAYER,ROW,COL
 ---------------------------------------------------------------------------
  1 -0.2395E+05  0 -0.1807E+05  0  -1787.      0  -1676.      1  -1360.    
   ( 22,  1, 57)  ( 22,  1, 57)  ( 22,  1, 86)  ( 22,  1, 86)  ( 22,  1, 86)


 FLOW MODEL IS TRANSIENT
 FLOW MODEL CONTAINS CONSTANT-HEAD CELLS


 MAXIMUM STEPSIZE DURING WHICH ANY PARTICLE CANNOT MOVE MORE THAN ONE CELL
 =  19.41    (WHEN MIN. R.F.=1)  AT K=  18, I=   1, J=  91

 MAXIMUM STEPSIZE WHICH MEETS STABILITY CRITERION OF THE ADVECTION TERM
 (FOR PURE FINITE-DIFFERENCE OPTION, MIXELM=0) 
 =  10.90    (WHEN MIN. R.F.=1)  AT K=  16, I=   1, J=  90


 TOTAL NUMBER OF POINT SOURCES/SINKS PRESENT IN THE FLOW MODEL =    30

 MAXIMUM STEPSIZE WHICH MEETS STABILITY CRITERION OF THE SINK & SOURCE TERM
 =  15.72    (WHEN MIN. R.F.=1)  AT K=  17, I=   1, J=  91

 MAXIMUM STEPSIZE WHICH MEETS STABILITY CRITERION OF THE DISPERSION TERM
 =  5.635    (WHEN MIN. R.F.=1)  AT K=  16, I=   1, J=  89
     1 CALLS TO GCG PACKAGE FOR TRANSPORT TIME STEP 145 IN FLOW TIME STEP   1 STRESS PERIOD   1
     4 TOTAL ITERATIONS
  MAXIMUM CONCENTRATION CHANGES FOR EACH ITERATION:
  MAX. CHANGE LAYER,ROW,COL MAX. CHANGE LAYER,ROW,COL MAX. CHANGE LAYER,ROW,COL MAX. CHANGE LAYER,ROW,COL MAX. CHANGE LAYER,ROW,COL
 ------------------------------------------------------------------------------------------------------------------------------------
   0.3316     ( 16,  1, 90)  0.7297E-03 ( 17,  1, 89)  0.1828E-04 ( 16,  1, 89)  0.1349E-06 ( 17,  1, 88)
0WARNING: NUMERICAL OSCILLATION ENCOUNTERED
 ONE OR MORE CELL CONCENTRATIONS LESS THAN CRHOREF
 SMALLEST DENSITY =  0.100E+04
 AT CELL (I,J,K) = (   1,  68,   6)

 
 SOLVING FOR HEAD 


     2 CALLS TO PCG ROUTINE FOR TIME STEP   1 IN STRESS PERIOD    1
     5 TOTAL ITERATIONS

 MAXIMUM HEAD CHANGE FOR EACH ITERATION (1 INDICATES THE FIRST INNER ITERATION):

    HEAD CHANGE    HEAD CHANGE    HEAD CHANGE    HEAD CHANGE    HEAD CHANGE 
   LAYER,ROW,COL  LAYER,ROW,COL  LAYER,ROW,COL  LAYER,ROW,COL  LAYER,ROW,COL
 ---------------------------------------------------------------------------
  1 -0.2336E-02  0 -0.2160E-02  0  0.2112E-02  0 -0.9368E-03  1 -0.6311E-03
   ( 23,  1, 72)  ( 10,  1, 12)  ( 10,  1, 12)  ( 11,  1, 56)  ( 11,  1, 70)

 MAXIMUM RESIDUAL FOR EACH ITERATION (1 INDICATES THE FIRST INNER ITERATION):

    RESIDUAL       RESIDUAL       RESIDUAL       RESIDUAL       RESIDUAL    
   LAYER,ROW,COL  LAYER,ROW,COL  LAYER,ROW,COL  LAYER,ROW,COL  LAYER,ROW,COL
 ---------------------------------------------------------------------------
  1 -0.2332E+05  0 -0.1728E+05  0   1696.      0   1574.      1   1282.    
   ( 22,  1, 57)  ( 22,  1, 57)  ( 17,  1, 89)  ( 22,  1, 88)  ( 22,  1, 88)


 FLOW MODEL IS TRANSIENT
 FLOW MODEL CONTAINS CONSTANT-HEAD CELLS


 MAXIMUM STEPSIZE DURING WHICH ANY PARTICLE CANNOT MOVE MORE THAN ONE CELL
 =  19.36    (WHEN MIN. R.F.=1)  AT K=  18, I=   1, J=  91

 MAXIMUM STEPSIZE WHICH MEETS STABILITY CRITERION OF THE ADVECTION TERM
 (FOR PURE FINITE-DIFFERENCE OPTION, MIXELM=0) 
 =  10.86    (WHEN MIN. R.F.=1)  AT K=  16, I=   1, J=  90


 TOTAL NUMBER OF POINT SOURCES/SINKS PRESENT IN THE FLOW MODEL =    30

 MAXIMUM STEPSIZE WHICH MEETS STABILITY CRITERION OF THE SINK & SOURCE TERM
 =  15.67    (WHEN MIN. R.F.=1)  AT K=  17, I=   1, J=  91

 MAXIMUM STEPSIZE WHICH MEETS STABILITY CRITERION OF THE DISPERSION TERM
 =  5.617    (WHEN MIN. R.F.=1)  AT K=  16, I=   1, J=  89
     1 CALLS TO GCG PACKAGE FOR TRANSPORT TIME STEP 146 IN FLOW TIME STEP   1 STRESS PERIOD   1
     4 TOTAL ITERATIONS
0WARNING: NUMERICAL OSCILLATION ENCOUNTERED
 ONE OR MORE CELL CONCENTRATIONS LESS THAN CRHOREF
 SMALLEST DENSITY =  0.100E+04
 AT CELL (I,J,K) = (   1,  68,   6)

 
 SOLVING FOR HEAD 


     2 CALLS TO PCG ROUTINE FOR TIME STEP   1 IN STRESS PERIOD    1
     5 TOTAL ITERATIONS

 MAXIMUM HEAD CHANGE FOR EACH ITERATION (1 INDICATES THE FIRST INNER ITERATION):

    HEAD CHANGE    HEAD CHANGE    HEAD CHANGE    HEAD CHANGE    HEAD CHANGE 
   LAYER,ROW,COL  LAYER,ROW,COL  LAYER,ROW,COL  LAYER,ROW,COL  LAYER,ROW,COL
 ---------------------------------------------------------------------------
  1 -0.2398E-02  0 -0.2179E-02  0  0.2111E-02  0 -0.9205E-03  1 -0.7312E-03
   ( 23,  1, 72)  ( 10,  1, 12)  ( 10,  1, 12)  ( 11,  1, 57)  ( 11,  1, 70)

 MAXIMUM RESIDUAL FOR EACH ITERATION (1 INDICATES THE FIRST INNER ITERATION):

    RESIDUAL       RESIDUAL       RESIDUAL       RESIDUAL       RESIDUAL    
   LAYER,ROW,COL  LAYER,ROW,COL  LAYER,ROW,COL  LAYER,ROW,COL  LAYER,ROW,COL
 ---------------------------------------------------------------------------
  1 -0.2208E+05  0 -0.1638E+05  0   1771.      0   1635.      1   1265.    
   ( 22,  1, 57)  ( 22,  1, 57)  ( 17,  1, 87)  ( 17,  1, 87)  ( 17,  1, 87)


 FLOW MODEL IS TRANSIENT
 FLOW MODEL CONTAINS CONSTANT-HEAD CELLS


 MAXIMUM STEPSIZE DURING WHICH ANY PARTICLE CANNOT MOVE MORE THAN ONE CELL
 =  19.26    (WHEN MIN. R.F.=1)  AT K=  18, I=   1, J=  91

 MAXIMUM STEPSIZE WHICH MEETS STABILITY CRITERION OF THE ADVECTION TERM
 (FOR PURE FINITE-DIFFERENCE OPTION, MIXELM=0) 
 =  10.83    (WHEN MIN. R.F.=1)  AT K=  16, I=   1, J=  90


 TOTAL NUMBER OF POINT SOURCES/SINKS PRESENT IN THE FLOW MODEL =    30

 MAXIMUM STEPSIZE WHICH MEETS STABILITY CRITERION OF THE SINK & SOURCE TERM
 =  15.61    (WHEN MIN. R.F.=1)  AT K=  17, I=   1, J=  91

 MAXIMUM STEPSIZE WHICH MEETS STABILITY CRITERION OF THE DISPERSION TERM
 =  5.608    (WHEN MIN. R.F.=1)  AT K=  16, I=   1, J=  89
     1 CALLS TO GCG PACKAGE FOR TRANSPORT TIME STEP 147 IN FLOW TIME STEP   1 STRESS PERIOD   1
     4 TOTAL ITERATIONS
0WARNING: NUMERICAL OSCILLATION ENCOUNTERED
 ONE OR MORE CELL CONCENTRATIONS LESS THAN CRHOREF
 SMALLEST DENSITY =  0.100E+04
 AT CELL (I,J,K) = (   1,  68,   6)

 
 SOLVING FOR HEAD 


     2 CALLS TO PCG ROUTINE FOR TIME STEP   1 IN STRESS PERIOD    1
     6 TOTAL ITERATIONS

 MAXIMUM HEAD CHANGE FOR EACH ITERATION (1 INDICATES THE FIRST INNER ITERATION):

    HEAD CHANGE    HEAD CHANGE    HEAD CHANGE    HEAD CHANGE    HEAD CHANGE 
   LAYER,ROW,COL  LAYER,ROW,COL  LAYER,ROW,COL  LAYER,ROW,COL  LAYER,ROW,COL
 ---------------------------------------------------------------------------
  1 -0.2357E-02  0 -0.2232E-02  0  0.2178E-02  0 -0.1099E-02  0 -0.9174E-03
   ( 23,  1, 72)  ( 10,  1, 12)  ( 10,  1, 12)  ( 11,  1, 58)  ( 11,  1, 70)
  1  0.3640E-03
   ( 11,  1, 65)

 MAXIMUM RESIDUAL FOR EACH ITERATION (1 INDICATES THE FIRST INNER ITERATION):

    RESIDUAL       RESIDUAL       RESIDUAL       RESIDUAL       RESIDUAL    
   LAYER,ROW,COL  LAYER,ROW,COL  LAYER,ROW,COL  LAYER,ROW,COL  LAYER,ROW,COL
 ---------------------------------------------------------------------------
  1 -0.2147E+05  0 -0.1539E+05  0  -2086.      0  -2008.      0   1470.    
   ( 22,  1, 57)  ( 22,  1, 57)  ( 22,  1, 88)  ( 22,  1, 88)  ( 22,  1, 87)
  1   1044.    
   ( 22,  1, 87)


 FLOW MODEL IS TRANSIENT
 FLOW MODEL CONTAINS CONSTANT-HEAD CELLS


 MAXIMUM STEPSIZE DURING WHICH ANY PARTICLE CANNOT MOVE MORE THAN ONE CELL
 =  19.19    (WHEN MIN. R.F.=1)  AT K=  18, I=   1, J=  91

 MAXIMUM STEPSIZE WHICH MEETS STABILITY CRITERION OF THE ADVECTION TERM
 (FOR PURE FINITE-DIFFERENCE OPTION, MIXELM=0) 
 =  10.79    (WHEN MIN. R.F.=1)  AT K=  16, I=   1, J=  90


 TOTAL NUMBER OF POINT SOURCES/SINKS PRESENT IN THE FLOW MODEL =    30

 MAXIMUM STEPSIZE WHICH MEETS STABILITY CRITERION OF THE SINK & SOURCE TERM
 =  15.55    (WHEN MIN. R.F.=1)  AT K=  17, I=   1, J=  91

 MAXIMUM STEPSIZE WHICH MEETS STABILITY CRITERION OF THE DISPERSION TERM
 =  5.593    (WHEN MIN. R.F.=1)  AT K=  16, I=   1, J=  89
     1 CALLS TO GCG PACKAGE FOR TRANSPORT TIME STEP 148 IN FLOW TIME STEP   1 STRESS PERIOD   1
     4 TOTAL ITERATIONS
0WARNING: NUMERICAL OSCILLATION ENCOUNTERED
 ONE OR MORE CELL CONCENTRATIONS LESS THAN CRHOREF
 SMALLEST DENSITY =  0.100E+04
 AT CELL (I,J,K) = (   1,  68,   6)

 
 SOLVING FOR HEAD 


     2 CALLS TO PCG ROUTINE FOR TIME STEP   1 IN STRESS PERIOD    1
     6 TOTAL ITERATIONS

 MAXIMUM HEAD CHANGE FOR EACH ITERATION (1 INDICATES THE FIRST INNER ITERATION):

    HEAD CHANGE    HEAD CHANGE    HEAD CHANGE    HEAD CHANGE    HEAD CHANGE 
   LAYER,ROW,COL  LAYER,ROW,COL  LAYER,ROW,COL  LAYER,ROW,COL  LAYER,ROW,COL
 ---------------------------------------------------------------------------
  1 -0.2308E-02  0 -0.2130E-02  0  0.2102E-02  0 -0.1093E-02  0 -0.7179E-03
   ( 23,  1, 72)  (  9,  1, 12)  ( 10,  1, 12)  ( 11,  1, 64)  ( 11,  1, 70)
  1  0.2000E-03
   ( 11,  1, 55)

 MAXIMUM RESIDUAL FOR EACH ITERATION (1 INDICATES THE FIRST INNER ITERATION):

    RESIDUAL       RESIDUAL       RESIDUAL       RESIDUAL       RESIDUAL    
   LAYER,ROW,COL  LAYER,ROW,COL  LAYER,ROW,COL  LAYER,ROW,COL  LAYER,ROW,COL
 ---------------------------------------------------------------------------
  1 -0.2246E+05  0 -0.1661E+05  0  -1565.      0  -1302.      0  -992.7    
   ( 22,  1, 57)  ( 22,  1, 57)  ( 20,  1, 88)  ( 22,  1, 89)  ( 22,  1, 89)
  1  -788.8    
   ( 20,  1, 88)


 FLOW MODEL IS TRANSIENT
 FLOW MODEL CONTAINS CONSTANT-HEAD CELLS


 MAXIMUM STEPSIZE DURING WHICH ANY PARTICLE CANNOT MOVE MORE THAN ONE CELL
 =  19.10    (WHEN MIN. R.F.=1)  AT K=  18, I=   1, J=  91

 MAXIMUM STEPSIZE WHICH MEETS STABILITY CRITERION OF THE ADVECTION TERM
 (FOR PURE FINITE-DIFFERENCE OPTION, MIXELM=0) 
 =  10.74    (WHEN MIN. R.F.=1)  AT K=  16, I=   1, J=  90


 TOTAL NUMBER OF POINT SOURCES/SINKS PRESENT IN THE FLOW MODEL =    30

 MAXIMUM STEPSIZE WHICH MEETS STABILITY CRITERION OF THE SINK & SOURCE TERM
 =  15.47    (WHEN MIN. R.F.=1)  AT K=  17, I=   1, J=  91

 MAXIMUM STEPSIZE WHICH MEETS STABILITY CRITERION OF THE DISPERSION TERM
 =  5.575    (WHEN MIN. R.F.=1)  AT K=  16, I=   1, J=  89
     1 CALLS TO GCG PACKAGE FOR TRANSPORT TIME STEP 149 IN FLOW TIME STEP   1 STRESS PERIOD   1
     4 TOTAL ITERATIONS
0WARNING: NUMERICAL OSCILLATION ENCOUNTERED
 ONE OR MORE CELL CONCENTRATIONS LESS THAN CRHOREF
 SMALLEST DENSITY =  0.100E+04
 AT CELL (I,J,K) = (   1,  68,   6)

 
 SOLVING FOR HEAD 


     2 CALLS TO PCG ROUTINE FOR TIME STEP   1 IN STRESS PERIOD    1
     5 TOTAL ITERATIONS

 MAXIMUM HEAD CHANGE FOR EACH ITERATION (1 INDICATES THE FIRST INNER ITERATION):

    HEAD CHANGE    HEAD CHANGE    HEAD CHANGE    HEAD CHANGE    HEAD CHANGE 
   LAYER,ROW,COL  LAYER,ROW,COL  LAYER,ROW,COL  LAYER,ROW,COL  LAYER,ROW,COL
 ---------------------------------------------------------------------------
  1 -0.2304E-02  0 -0.2096E-02  0  0.2055E-02  0 -0.8119E-03  1 -0.5351E-03
   ( 23,  1, 72)  ( 10,  1, 12)  ( 10,  1, 12)  ( 11,  1, 55)  ( 11,  1, 69)

 MAXIMUM RESIDUAL FOR EACH ITERATION (1 INDICATES THE FIRST INNER ITERATION):

    RESIDUAL       RESIDUAL       RESIDUAL       RESIDUAL       RESIDUAL    
   LAYER,ROW,COL  LAYER,ROW,COL  LAYER,ROW,COL  LAYER,ROW,COL  LAYER,ROW,COL
 ---------------------------------------------------------------------------
  1  0.2378E+05  0  0.1761E+05  0   1741.      0   1585.      1   1318.    
   ( 20,  1, 84)  ( 20,  1, 84)  ( 17,  1, 89)  ( 17,  1, 89)  ( 17,  1, 89)


 FLOW MODEL IS TRANSIENT
 FLOW MODEL CONTAINS CONSTANT-HEAD CELLS


 MAXIMUM STEPSIZE DURING WHICH ANY PARTICLE CANNOT MOVE MORE THAN ONE CELL
 =  19.04    (WHEN MIN. R.F.=1)  AT K=  18, I=   1, J=  91

 MAXIMUM STEPSIZE WHICH MEETS STABILITY CRITERION OF THE ADVECTION TERM
 (FOR PURE FINITE-DIFFERENCE OPTION, MIXELM=0) 
 =  10.71    (WHEN MIN. R.F.=1)  AT K=  16, I=   1, J=  90


 TOTAL NUMBER OF POINT SOURCES/SINKS PRESENT IN THE FLOW MODEL =    30

 MAXIMUM STEPSIZE WHICH MEETS STABILITY CRITERION OF THE SINK & SOURCE TERM
 =  15.43    (WHEN MIN. R.F.=1)  AT K=  17, I=   1, J=  91

 MAXIMUM STEPSIZE WHICH MEETS STABILITY CRITERION OF THE DISPERSION TERM
 =  5.563    (WHEN MIN. R.F.=1)  AT K=  16, I=   1, J=  89
     1 CALLS TO GCG PACKAGE FOR TRANSPORT TIME STEP 150 IN FLOW TIME STEP   1 STRESS PERIOD   1
     4 TOTAL ITERATIONS
  MAXIMUM CONCENTRATION CHANGES FOR EACH ITERATION:
  MAX. CHANGE LAYER,ROW,COL MAX. CHANGE LAYER,ROW,COL MAX. CHANGE LAYER,ROW,COL MAX. CHANGE LAYER,ROW,COL MAX. CHANGE LAYER,ROW,COL
 ------------------------------------------------------------------------------------------------------------------------------------
   0.3313     ( 16,  1, 90)  0.7217E-03 ( 17,  1, 89)  0.1808E-04 ( 16,  1, 89)  0.1310E-06 ( 17,  1, 88)



 >>>>>>>>>>>>>>>>>>>>>>>>>>>>>>>>>>>>>>>>>>>>>>>>>>>>>>>FOR COMPONENT NO. 01<<<<<<<<<<<<<<<<<<<<<<<<<<<<<<<<<<<<<<<<<<<<<<<<<<<<<<<


                                            -------------------------------------------
                                                      TRANSPORT STEP NO.  150
                                            -------------------------------------------

 TOTAL ELAPSED TIME SINCE BEGINNING OF SIMULATION =   1229.577    D   
 .....................................................................

                     CUMMULATIVE MASS BUDGETS AT END OF TRANSPORT STEP  150, TIME STEP    1, STRESS PERIOD    1
                     ------------------------------------------------------------------------------------------

                                                             IN                           OUT
                                                      ----------------             ----------------
                               CONSTANT CONCENTRATION:    0.000000                    0.000000    
                                        CONSTANT HEAD:   0.1481241E+08              -0.1811352E+08
                                             RECHARGE:    0.000000                    0.000000    
                                MASS STORAGE (SOLUTE):   0.2408842E+08              -0.2078731E+08
                            ---------------------------------------------------------------------------
                                              [TOTAL]:   0.3890198E+08 KG           -0.3890198E+08 KG  

                                                          NET (IN - OUT):   0.9497747    
                                                   DISCREPANCY (PERCENT):   0.2441456E-05
0WARNING: NUMERICAL OSCILLATION ENCOUNTERED
 ONE OR MORE CELL CONCENTRATIONS LESS THAN CRHOREF
 SMALLEST DENSITY =  0.100E+04
 AT CELL (I,J,K) = (   1,  68,   6)

 
 SOLVING FOR HEAD 


     2 CALLS TO PCG ROUTINE FOR TIME STEP   1 IN STRESS PERIOD    1
     5 TOTAL ITERATIONS

 MAXIMUM HEAD CHANGE FOR EACH ITERATION (1 INDICATES THE FIRST INNER ITERATION):

    HEAD CHANGE    HEAD CHANGE    HEAD CHANGE    HEAD CHANGE    HEAD CHANGE 
   LAYER,ROW,COL  LAYER,ROW,COL  LAYER,ROW,COL  LAYER,ROW,COL  LAYER,ROW,COL
 ---------------------------------------------------------------------------
  1 -0.2312E-02  0 -0.2152E-02  0  0.2092E-02  0 -0.8943E-03  1 -0.6137E-03
   ( 23,  1, 72)  ( 10,  1, 12)  ( 10,  1, 12)  ( 11,  1, 55)  ( 11,  1, 70)

 MAXIMUM RESIDUAL FOR EACH ITERATION (1 INDICATES THE FIRST INNER ITERATION):

    RESIDUAL       RESIDUAL       RESIDUAL       RESIDUAL       RESIDUAL    
   LAYER,ROW,COL  LAYER,ROW,COL  LAYER,ROW,COL  LAYER,ROW,COL  LAYER,ROW,COL
 ---------------------------------------------------------------------------
  1 -0.2089E+05  0 -0.1538E+05  0  -2019.      0  -1555.      1  -1199.    
   ( 16,  1, 89)  ( 16,  1, 89)  ( 18,  1, 84)  ( 18,  1, 84)  ( 18,  1, 84)


 FLOW MODEL IS TRANSIENT
 FLOW MODEL CONTAINS CONSTANT-HEAD CELLS


 MAXIMUM STEPSIZE DURING WHICH ANY PARTICLE CANNOT MOVE MORE THAN ONE CELL
 =  18.96    (WHEN MIN. R.F.=1)  AT K=  18, I=   1, J=  91

 MAXIMUM STEPSIZE WHICH MEETS STABILITY CRITERION OF THE ADVECTION TERM
 (FOR PURE FINITE-DIFFERENCE OPTION, MIXELM=0) 
 =  10.68    (WHEN MIN. R.F.=1)  AT K=  16, I=   1, J=  90


 TOTAL NUMBER OF POINT SOURCES/SINKS PRESENT IN THE FLOW MODEL =    30

 MAXIMUM STEPSIZE WHICH MEETS STABILITY CRITERION OF THE SINK & SOURCE TERM
 =  15.38    (WHEN MIN. R.F.=1)  AT K=  17, I=   1, J=  91

 MAXIMUM STEPSIZE WHICH MEETS STABILITY CRITERION OF THE DISPERSION TERM
 =  5.552    (WHEN MIN. R.F.=1)  AT K=  16, I=   1, J=  89
     1 CALLS TO GCG PACKAGE FOR TRANSPORT TIME STEP 151 IN FLOW TIME STEP   1 STRESS PERIOD   1
     4 TOTAL ITERATIONS
0WARNING: NUMERICAL OSCILLATION ENCOUNTERED
 ONE OR MORE CELL CONCENTRATIONS LESS THAN CRHOREF
 SMALLEST DENSITY =  0.100E+04
 AT CELL (I,J,K) = (   1,  68,   5)

 
 SOLVING FOR HEAD 


     2 CALLS TO PCG ROUTINE FOR TIME STEP   1 IN STRESS PERIOD    1
     5 TOTAL ITERATIONS

 MAXIMUM HEAD CHANGE FOR EACH ITERATION (1 INDICATES THE FIRST INNER ITERATION):

    HEAD CHANGE    HEAD CHANGE    HEAD CHANGE    HEAD CHANGE    HEAD CHANGE 
   LAYER,ROW,COL  LAYER,ROW,COL  LAYER,ROW,COL  LAYER,ROW,COL  LAYER,ROW,COL
 ---------------------------------------------------------------------------
  1 -0.2242E-02  0 -0.2124E-02  0  0.2064E-02  0 -0.9222E-03  1 -0.6782E-03
   ( 23,  1, 72)  ( 10,  1, 12)  ( 10,  1, 12)  ( 11,  1, 57)  ( 11,  1, 70)

 MAXIMUM RESIDUAL FOR EACH ITERATION (1 INDICATES THE FIRST INNER ITERATION):

    RESIDUAL       RESIDUAL       RESIDUAL       RESIDUAL       RESIDUAL    
   LAYER,ROW,COL  LAYER,ROW,COL  LAYER,ROW,COL  LAYER,ROW,COL  LAYER,ROW,COL
 ---------------------------------------------------------------------------
  1 -0.2051E+05  0  0.1472E+05  0   1905.      0   1799.      1   1406.    
   ( 22,  1, 57)  ( 20,  1, 84)  ( 17,  1, 88)  ( 17,  1, 88)  ( 17,  1, 88)


 FLOW MODEL IS TRANSIENT
 FLOW MODEL CONTAINS CONSTANT-HEAD CELLS


 MAXIMUM STEPSIZE DURING WHICH ANY PARTICLE CANNOT MOVE MORE THAN ONE CELL
 =  18.89    (WHEN MIN. R.F.=1)  AT K=  18, I=   1, J=  91

 MAXIMUM STEPSIZE WHICH MEETS STABILITY CRITERION OF THE ADVECTION TERM
 (FOR PURE FINITE-DIFFERENCE OPTION, MIXELM=0) 
 =  10.64    (WHEN MIN. R.F.=1)  AT K=  16, I=   1, J=  90


 TOTAL NUMBER OF POINT SOURCES/SINKS PRESENT IN THE FLOW MODEL =    30

 MAXIMUM STEPSIZE WHICH MEETS STABILITY CRITERION OF THE SINK & SOURCE TERM
 =  15.31    (WHEN MIN. R.F.=1)  AT K=  17, I=   1, J=  91

 MAXIMUM STEPSIZE WHICH MEETS STABILITY CRITERION OF THE DISPERSION TERM
 =  5.534    (WHEN MIN. R.F.=1)  AT K=  16, I=   1, J=  89
     1 CALLS TO GCG PACKAGE FOR TRANSPORT TIME STEP 152 IN FLOW TIME STEP   1 STRESS PERIOD   1
     4 TOTAL ITERATIONS
0WARNING: NUMERICAL OSCILLATION ENCOUNTERED
 ONE OR MORE CELL CONCENTRATIONS LESS THAN CRHOREF
 SMALLEST DENSITY =  0.100E+04
 AT CELL (I,J,K) = (   1,  68,   5)

 
 SOLVING FOR HEAD 


     2 CALLS TO PCG ROUTINE FOR TIME STEP   1 IN STRESS PERIOD    1
     5 TOTAL ITERATIONS

 MAXIMUM HEAD CHANGE FOR EACH ITERATION (1 INDICATES THE FIRST INNER ITERATION):

    HEAD CHANGE    HEAD CHANGE    HEAD CHANGE    HEAD CHANGE    HEAD CHANGE 
   LAYER,ROW,COL  LAYER,ROW,COL  LAYER,ROW,COL  LAYER,ROW,COL  LAYER,ROW,COL
 ---------------------------------------------------------------------------
  1 -0.2259E-02  0 -0.2126E-02  0  0.2102E-02  0 -0.9423E-03  1 -0.6825E-03
   ( 23,  1, 72)  ( 10,  1, 12)  ( 10,  1, 12)  ( 11,  1, 57)  ( 11,  1, 70)

 MAXIMUM RESIDUAL FOR EACH ITERATION (1 INDICATES THE FIRST INNER ITERATION):

    RESIDUAL       RESIDUAL       RESIDUAL       RESIDUAL       RESIDUAL    
   LAYER,ROW,COL  LAYER,ROW,COL  LAYER,ROW,COL  LAYER,ROW,COL  LAYER,ROW,COL
 ---------------------------------------------------------------------------
  1  0.2451E+05  0  0.1729E+05  0   1915.      0   1838.      1   1465.    
   ( 20,  1, 84)  ( 20,  1, 84)  ( 17,  1, 89)  ( 22,  1, 88)  ( 22,  1, 88)


 FLOW MODEL IS TRANSIENT
 FLOW MODEL CONTAINS CONSTANT-HEAD CELLS


 MAXIMUM STEPSIZE DURING WHICH ANY PARTICLE CANNOT MOVE MORE THAN ONE CELL
 =  18.85    (WHEN MIN. R.F.=1)  AT K=  18, I=   1, J=  91

 MAXIMUM STEPSIZE WHICH MEETS STABILITY CRITERION OF THE ADVECTION TERM
 (FOR PURE FINITE-DIFFERENCE OPTION, MIXELM=0) 
 =  10.61    (WHEN MIN. R.F.=1)  AT K=  16, I=   1, J=  90


 TOTAL NUMBER OF POINT SOURCES/SINKS PRESENT IN THE FLOW MODEL =    30

 MAXIMUM STEPSIZE WHICH MEETS STABILITY CRITERION OF THE SINK & SOURCE TERM
 =  15.28    (WHEN MIN. R.F.=1)  AT K=  17, I=   1, J=  91

 MAXIMUM STEPSIZE WHICH MEETS STABILITY CRITERION OF THE DISPERSION TERM
 =  5.517    (WHEN MIN. R.F.=1)  AT K=  16, I=   1, J=  89
     1 CALLS TO GCG PACKAGE FOR TRANSPORT TIME STEP 153 IN FLOW TIME STEP   1 STRESS PERIOD   1
     4 TOTAL ITERATIONS
0WARNING: NUMERICAL OSCILLATION ENCOUNTERED
 ONE OR MORE CELL CONCENTRATIONS LESS THAN CRHOREF
 SMALLEST DENSITY =  0.100E+04
 AT CELL (I,J,K) = (   1,  68,   5)

 
 SOLVING FOR HEAD 


     2 CALLS TO PCG ROUTINE FOR TIME STEP   1 IN STRESS PERIOD    1
     5 TOTAL ITERATIONS

 MAXIMUM HEAD CHANGE FOR EACH ITERATION (1 INDICATES THE FIRST INNER ITERATION):

    HEAD CHANGE    HEAD CHANGE    HEAD CHANGE    HEAD CHANGE    HEAD CHANGE 
   LAYER,ROW,COL  LAYER,ROW,COL  LAYER,ROW,COL  LAYER,ROW,COL  LAYER,ROW,COL
 ---------------------------------------------------------------------------
  1 -0.2325E-02  0 -0.2159E-02  0  0.2120E-02  0 -0.9697E-03  1 -0.7385E-03
   ( 23,  1, 72)  ( 10,  1, 12)  ( 10,  1, 12)  ( 11,  1, 58)  ( 11,  1, 69)

 MAXIMUM RESIDUAL FOR EACH ITERATION (1 INDICATES THE FIRST INNER ITERATION):

    RESIDUAL       RESIDUAL       RESIDUAL       RESIDUAL       RESIDUAL    
   LAYER,ROW,COL  LAYER,ROW,COL  LAYER,ROW,COL  LAYER,ROW,COL  LAYER,ROW,COL
 ---------------------------------------------------------------------------
  1  0.2446E+05  0  0.1721E+05  0  -2146.      0   1597.      1  -1226.    
   ( 20,  1, 84)  ( 20,  1, 84)  ( 18,  1, 84)  ( 20,  1, 88)  ( 17,  1, 88)


 FLOW MODEL IS TRANSIENT
 FLOW MODEL CONTAINS CONSTANT-HEAD CELLS


 MAXIMUM STEPSIZE DURING WHICH ANY PARTICLE CANNOT MOVE MORE THAN ONE CELL
 =  18.75    (WHEN MIN. R.F.=1)  AT K=  18, I=   1, J=  91

 MAXIMUM STEPSIZE WHICH MEETS STABILITY CRITERION OF THE ADVECTION TERM
 (FOR PURE FINITE-DIFFERENCE OPTION, MIXELM=0) 
 =  10.58    (WHEN MIN. R.F.=1)  AT K=  16, I=   1, J=  90


 TOTAL NUMBER OF POINT SOURCES/SINKS PRESENT IN THE FLOW MODEL =    30

 MAXIMUM STEPSIZE WHICH MEETS STABILITY CRITERION OF THE SINK & SOURCE TERM
 =  15.22    (WHEN MIN. R.F.=1)  AT K=  17, I=   1, J=  91

 MAXIMUM STEPSIZE WHICH MEETS STABILITY CRITERION OF THE DISPERSION TERM
 =  5.510    (WHEN MIN. R.F.=1)  AT K=  16, I=   1, J=  89
     1 CALLS TO GCG PACKAGE FOR TRANSPORT TIME STEP 154 IN FLOW TIME STEP   1 STRESS PERIOD   1
     4 TOTAL ITERATIONS
0WARNING: NUMERICAL OSCILLATION ENCOUNTERED
 ONE OR MORE CELL CONCENTRATIONS LESS THAN CRHOREF
 SMALLEST DENSITY =  0.100E+04
 AT CELL (I,J,K) = (   1,  68,   5)

 
 SOLVING FOR HEAD 


     2 CALLS TO PCG ROUTINE FOR TIME STEP   1 IN STRESS PERIOD    1
     6 TOTAL ITERATIONS

 MAXIMUM HEAD CHANGE FOR EACH ITERATION (1 INDICATES THE FIRST INNER ITERATION):

    HEAD CHANGE    HEAD CHANGE    HEAD CHANGE    HEAD CHANGE    HEAD CHANGE 
   LAYER,ROW,COL  LAYER,ROW,COL  LAYER,ROW,COL  LAYER,ROW,COL  LAYER,ROW,COL
 ---------------------------------------------------------------------------
  1 -0.2226E-02  0 -0.2158E-02  0  0.2122E-02  0 -0.1107E-02  0 -0.8471E-03
   ( 23,  1, 72)  ( 10,  1, 12)  ( 10,  1, 12)  ( 11,  1, 58)  ( 11,  1, 70)
  1  0.3267E-03
   ( 11,  1, 65)

 MAXIMUM RESIDUAL FOR EACH ITERATION (1 INDICATES THE FIRST INNER ITERATION):

    RESIDUAL       RESIDUAL       RESIDUAL       RESIDUAL       RESIDUAL    
   LAYER,ROW,COL  LAYER,ROW,COL  LAYER,ROW,COL  LAYER,ROW,COL  LAYER,ROW,COL
 ---------------------------------------------------------------------------
  1  0.2293E+05  0  0.1571E+05  0  -2135.      0  -1941.      0  -1334.    
   ( 20,  1, 84)  ( 20,  1, 84)  ( 18,  1, 84)  ( 22,  1, 88)  ( 22,  1, 88)
  1  -985.6    
   ( 22,  1, 88)


 FLOW MODEL IS TRANSIENT
 FLOW MODEL CONTAINS CONSTANT-HEAD CELLS


 MAXIMUM STEPSIZE DURING WHICH ANY PARTICLE CANNOT MOVE MORE THAN ONE CELL
 =  18.69    (WHEN MIN. R.F.=1)  AT K=  18, I=   1, J=  91

 MAXIMUM STEPSIZE WHICH MEETS STABILITY CRITERION OF THE ADVECTION TERM
 (FOR PURE FINITE-DIFFERENCE OPTION, MIXELM=0) 
 =  10.55    (WHEN MIN. R.F.=1)  AT K=  16, I=   1, J=  90


 TOTAL NUMBER OF POINT SOURCES/SINKS PRESENT IN THE FLOW MODEL =    30

 MAXIMUM STEPSIZE WHICH MEETS STABILITY CRITERION OF THE SINK & SOURCE TERM
 =  15.17    (WHEN MIN. R.F.=1)  AT K=  17, I=   1, J=  91

 MAXIMUM STEPSIZE WHICH MEETS STABILITY CRITERION OF THE DISPERSION TERM
 =  5.497    (WHEN MIN. R.F.=1)  AT K=  16, I=   1, J=  89
     1 CALLS TO GCG PACKAGE FOR TRANSPORT TIME STEP 155 IN FLOW TIME STEP   1 STRESS PERIOD   1
     4 TOTAL ITERATIONS
  MAXIMUM CONCENTRATION CHANGES FOR EACH ITERATION:
  MAX. CHANGE LAYER,ROW,COL MAX. CHANGE LAYER,ROW,COL MAX. CHANGE LAYER,ROW,COL MAX. CHANGE LAYER,ROW,COL MAX. CHANGE LAYER,ROW,COL
 ------------------------------------------------------------------------------------------------------------------------------------
   0.3313     ( 16,  1, 90)  0.7182E-03 ( 17,  1, 89)  0.1798E-04 ( 16,  1, 89)  0.1307E-06 ( 17,  1, 88)
0WARNING: NUMERICAL OSCILLATION ENCOUNTERED
 ONE OR MORE CELL CONCENTRATIONS LESS THAN CRHOREF
 SMALLEST DENSITY =  0.100E+04
 AT CELL (I,J,K) = (   1,  68,   5)

 
 SOLVING FOR HEAD 


     2 CALLS TO PCG ROUTINE FOR TIME STEP   1 IN STRESS PERIOD    1
     6 TOTAL ITERATIONS

 MAXIMUM HEAD CHANGE FOR EACH ITERATION (1 INDICATES THE FIRST INNER ITERATION):

    HEAD CHANGE    HEAD CHANGE    HEAD CHANGE    HEAD CHANGE    HEAD CHANGE 
   LAYER,ROW,COL  LAYER,ROW,COL  LAYER,ROW,COL  LAYER,ROW,COL  LAYER,ROW,COL
 ---------------------------------------------------------------------------
  1 -0.2216E-02  0 -0.2088E-02  0  0.2066E-02  0 -0.1010E-02  0 -0.6408E-03
   ( 23,  1, 72)  (  9,  1, 12)  ( 10,  1, 12)  ( 11,  1, 64)  ( 11,  1, 70)
  1  0.1697E-03
   ( 11,  1, 55)

 MAXIMUM RESIDUAL FOR EACH ITERATION (1 INDICATES THE FIRST INNER ITERATION):

    RESIDUAL       RESIDUAL       RESIDUAL       RESIDUAL       RESIDUAL    
   LAYER,ROW,COL  LAYER,ROW,COL  LAYER,ROW,COL  LAYER,ROW,COL  LAYER,ROW,COL
 ---------------------------------------------------------------------------
  1  0.2666E+05  0  0.1891E+05  0  -1459.      0  -1272.      0  -973.8    
   ( 20,  1, 84)  ( 20,  1, 84)  ( 20,  1, 88)  ( 22,  1, 89)  ( 22,  1, 89)
  1  -752.7    
   ( 22,  1, 89)


 FLOW MODEL IS TRANSIENT
 FLOW MODEL CONTAINS CONSTANT-HEAD CELLS


 MAXIMUM STEPSIZE DURING WHICH ANY PARTICLE CANNOT MOVE MORE THAN ONE CELL
 =  18.62    (WHEN MIN. R.F.=1)  AT K=  18, I=   1, J=  91

 MAXIMUM STEPSIZE WHICH MEETS STABILITY CRITERION OF THE ADVECTION TERM
 (FOR PURE FINITE-DIFFERENCE OPTION, MIXELM=0) 
 =  10.51    (WHEN MIN. R.F.=1)  AT K=  16, I=   1, J=  90


 TOTAL NUMBER OF POINT SOURCES/SINKS PRESENT IN THE FLOW MODEL =    30

 MAXIMUM STEPSIZE WHICH MEETS STABILITY CRITERION OF THE SINK & SOURCE TERM
 =  15.10    (WHEN MIN. R.F.=1)  AT K=  17, I=   1, J=  91

 MAXIMUM STEPSIZE WHICH MEETS STABILITY CRITERION OF THE DISPERSION TERM
 =  5.480    (WHEN MIN. R.F.=1)  AT K=  16, I=   1, J=  89
     1 CALLS TO GCG PACKAGE FOR TRANSPORT TIME STEP 156 IN FLOW TIME STEP   1 STRESS PERIOD   1
     4 TOTAL ITERATIONS
0WARNING: NUMERICAL OSCILLATION ENCOUNTERED
 ONE OR MORE CELL CONCENTRATIONS LESS THAN CRHOREF
 SMALLEST DENSITY =  0.100E+04
 AT CELL (I,J,K) = (   1,  68,   5)

 
 SOLVING FOR HEAD 


     2 CALLS TO PCG ROUTINE FOR TIME STEP   1 IN STRESS PERIOD    1
     5 TOTAL ITERATIONS

 MAXIMUM HEAD CHANGE FOR EACH ITERATION (1 INDICATES THE FIRST INNER ITERATION):

    HEAD CHANGE    HEAD CHANGE    HEAD CHANGE    HEAD CHANGE    HEAD CHANGE 
   LAYER,ROW,COL  LAYER,ROW,COL  LAYER,ROW,COL  LAYER,ROW,COL  LAYER,ROW,COL
 ---------------------------------------------------------------------------
  1 -0.2233E-02  0 -0.2065E-02  0  0.2030E-02  0 -0.7381E-03  1 -0.4875E-03
   ( 23,  1, 72)  ( 10,  1, 12)  ( 10,  1, 12)  ( 11,  1, 55)  ( 11,  1, 69)

 MAXIMUM RESIDUAL FOR EACH ITERATION (1 INDICATES THE FIRST INNER ITERATION):

    RESIDUAL       RESIDUAL       RESIDUAL       RESIDUAL       RESIDUAL    
   LAYER,ROW,COL  LAYER,ROW,COL  LAYER,ROW,COL  LAYER,ROW,COL  LAYER,ROW,COL
 ---------------------------------------------------------------------------
  1  0.2694E+05  0  0.1920E+05  0   1678.      0   1476.      1   1223.    
   ( 20,  1, 84)  ( 20,  1, 84)  ( 21,  1, 83)  ( 17,  1, 89)  ( 17,  1, 89)


 FLOW MODEL IS TRANSIENT
 FLOW MODEL CONTAINS CONSTANT-HEAD CELLS


 MAXIMUM STEPSIZE DURING WHICH ANY PARTICLE CANNOT MOVE MORE THAN ONE CELL
 =  18.56    (WHEN MIN. R.F.=1)  AT K=  18, I=   1, J=  91

 MAXIMUM STEPSIZE WHICH MEETS STABILITY CRITERION OF THE ADVECTION TERM
 (FOR PURE FINITE-DIFFERENCE OPTION, MIXELM=0) 
 =  10.48    (WHEN MIN. R.F.=1)  AT K=  16, I=   1, J=  90


 TOTAL NUMBER OF POINT SOURCES/SINKS PRESENT IN THE FLOW MODEL =    30

 MAXIMUM STEPSIZE WHICH MEETS STABILITY CRITERION OF THE SINK & SOURCE TERM
 =  15.06    (WHEN MIN. R.F.=1)  AT K=  17, I=   1, J=  91

 MAXIMUM STEPSIZE WHICH MEETS STABILITY CRITERION OF THE DISPERSION TERM
 =  5.469    (WHEN MIN. R.F.=1)  AT K=  16, I=   1, J=  89
     1 CALLS TO GCG PACKAGE FOR TRANSPORT TIME STEP 157 IN FLOW TIME STEP   1 STRESS PERIOD   1
     4 TOTAL ITERATIONS
0WARNING: NUMERICAL OSCILLATION ENCOUNTERED
 ONE OR MORE CELL CONCENTRATIONS LESS THAN CRHOREF
 SMALLEST DENSITY =  0.100E+04
 AT CELL (I,J,K) = (   1,  68,   5)

 
 SOLVING FOR HEAD 


     2 CALLS TO PCG ROUTINE FOR TIME STEP   1 IN STRESS PERIOD    1
     5 TOTAL ITERATIONS

 MAXIMUM HEAD CHANGE FOR EACH ITERATION (1 INDICATES THE FIRST INNER ITERATION):

    HEAD CHANGE    HEAD CHANGE    HEAD CHANGE    HEAD CHANGE    HEAD CHANGE 
   LAYER,ROW,COL  LAYER,ROW,COL  LAYER,ROW,COL  LAYER,ROW,COL  LAYER,ROW,COL
 ---------------------------------------------------------------------------
  1 -0.2210E-02  0 -0.2096E-02  0  0.2047E-02  0 -0.8575E-03  1 -0.5589E-03
   ( 23,  1, 72)  ( 10,  1, 12)  ( 10,  1, 12)  ( 11,  1, 55)  ( 11,  1, 69)

 MAXIMUM RESIDUAL FOR EACH ITERATION (1 INDICATES THE FIRST INNER ITERATION):

    RESIDUAL       RESIDUAL       RESIDUAL       RESIDUAL       RESIDUAL    
   LAYER,ROW,COL  LAYER,ROW,COL  LAYER,ROW,COL  LAYER,ROW,COL  LAYER,ROW,COL
 ---------------------------------------------------------------------------
  1  0.2434E+05  0  0.1695E+05  0  -2124.      0   1671.      1   1336.    
   ( 20,  1, 84)  ( 20,  1, 84)  ( 18,  1, 84)  ( 22,  1, 84)  ( 22,  1, 84)


 FLOW MODEL IS TRANSIENT
 FLOW MODEL CONTAINS CONSTANT-HEAD CELLS


 MAXIMUM STEPSIZE DURING WHICH ANY PARTICLE CANNOT MOVE MORE THAN ONE CELL
 =  18.50    (WHEN MIN. R.F.=1)  AT K=  18, I=   1, J=  91

 MAXIMUM STEPSIZE WHICH MEETS STABILITY CRITERION OF THE ADVECTION TERM
 (FOR PURE FINITE-DIFFERENCE OPTION, MIXELM=0) 
 =  10.46    (WHEN MIN. R.F.=1)  AT K=  16, I=   1, J=  90


 TOTAL NUMBER OF POINT SOURCES/SINKS PRESENT IN THE FLOW MODEL =    30

 MAXIMUM STEPSIZE WHICH MEETS STABILITY CRITERION OF THE SINK & SOURCE TERM
 =  15.02    (WHEN MIN. R.F.=1)  AT K=  17, I=   1, J=  91

 MAXIMUM STEPSIZE WHICH MEETS STABILITY CRITERION OF THE DISPERSION TERM
 =  5.459    (WHEN MIN. R.F.=1)  AT K=  16, I=   1, J=  89
     1 CALLS TO GCG PACKAGE FOR TRANSPORT TIME STEP 158 IN FLOW TIME STEP   1 STRESS PERIOD   1
     4 TOTAL ITERATIONS
0WARNING: NUMERICAL OSCILLATION ENCOUNTERED
 ONE OR MORE CELL CONCENTRATIONS LESS THAN CRHOREF
 SMALLEST DENSITY =  0.100E+04
 AT CELL (I,J,K) = (   1,  68,   5)

 
 SOLVING FOR HEAD 


     2 CALLS TO PCG ROUTINE FOR TIME STEP   1 IN STRESS PERIOD    1
     5 TOTAL ITERATIONS

 MAXIMUM HEAD CHANGE FOR EACH ITERATION (1 INDICATES THE FIRST INNER ITERATION):

    HEAD CHANGE    HEAD CHANGE    HEAD CHANGE    HEAD CHANGE    HEAD CHANGE 
   LAYER,ROW,COL  LAYER,ROW,COL  LAYER,ROW,COL  LAYER,ROW,COL  LAYER,ROW,COL
 ---------------------------------------------------------------------------
  1 -0.2142E-02  0 -0.2058E-02  0  0.2006E-02  0 -0.8233E-03  1 -0.5880E-03
   ( 23,  1, 72)  ( 10,  1, 12)  ( 10,  1, 12)  ( 11,  1, 57)  ( 11,  1, 69)

 MAXIMUM RESIDUAL FOR EACH ITERATION (1 INDICATES THE FIRST INNER ITERATION):

    RESIDUAL       RESIDUAL       RESIDUAL       RESIDUAL       RESIDUAL    
   LAYER,ROW,COL  LAYER,ROW,COL  LAYER,ROW,COL  LAYER,ROW,COL  LAYER,ROW,COL
 ---------------------------------------------------------------------------
  1  0.2437E+05  0  0.1677E+05  0   1587.      0   1485.      1   1180.    
   ( 20,  1, 84)  ( 20,  1, 84)  ( 17,  1, 88)  ( 17,  1, 88)  ( 17,  1, 88)


 FLOW MODEL IS TRANSIENT
 FLOW MODEL CONTAINS CONSTANT-HEAD CELLS


 MAXIMUM STEPSIZE DURING WHICH ANY PARTICLE CANNOT MOVE MORE THAN ONE CELL
 =  18.44    (WHEN MIN. R.F.=1)  AT K=  18, I=   1, J=  91

 MAXIMUM STEPSIZE WHICH MEETS STABILITY CRITERION OF THE ADVECTION TERM
 (FOR PURE FINITE-DIFFERENCE OPTION, MIXELM=0) 
 =  10.43    (WHEN MIN. R.F.=1)  AT K=  16, I=   1, J=  90


 TOTAL NUMBER OF POINT SOURCES/SINKS PRESENT IN THE FLOW MODEL =    30

 MAXIMUM STEPSIZE WHICH MEETS STABILITY CRITERION OF THE SINK & SOURCE TERM
 =  14.96    (WHEN MIN. R.F.=1)  AT K=  17, I=   1, J=  91

 MAXIMUM STEPSIZE WHICH MEETS STABILITY CRITERION OF THE DISPERSION TERM
 =  5.443    (WHEN MIN. R.F.=1)  AT K=  16, I=   1, J=  89
     1 CALLS TO GCG PACKAGE FOR TRANSPORT TIME STEP 159 IN FLOW TIME STEP   1 STRESS PERIOD   1
     4 TOTAL ITERATIONS
0WARNING: NUMERICAL OSCILLATION ENCOUNTERED
 ONE OR MORE CELL CONCENTRATIONS LESS THAN CRHOREF
 SMALLEST DENSITY =  0.100E+04
 AT CELL (I,J,K) = (   1,  68,   5)

 
 SOLVING FOR HEAD 


     2 CALLS TO PCG ROUTINE FOR TIME STEP   1 IN STRESS PERIOD    1
     5 TOTAL ITERATIONS

 MAXIMUM HEAD CHANGE FOR EACH ITERATION (1 INDICATES THE FIRST INNER ITERATION):

    HEAD CHANGE    HEAD CHANGE    HEAD CHANGE    HEAD CHANGE    HEAD CHANGE 
   LAYER,ROW,COL  LAYER,ROW,COL  LAYER,ROW,COL  LAYER,ROW,COL  LAYER,ROW,COL
 ---------------------------------------------------------------------------
  1 -0.2159E-02  0 -0.2064E-02  0  0.2042E-02  0 -0.8100E-03  1 -0.5908E-03
   ( 23,  1, 71)  ( 10,  1, 12)  ( 10,  1, 12)  ( 11,  1, 58)  ( 11,  1, 69)

 MAXIMUM RESIDUAL FOR EACH ITERATION (1 INDICATES THE FIRST INNER ITERATION):

    RESIDUAL       RESIDUAL       RESIDUAL       RESIDUAL       RESIDUAL    
   LAYER,ROW,COL  LAYER,ROW,COL  LAYER,ROW,COL  LAYER,ROW,COL  LAYER,ROW,COL
 ---------------------------------------------------------------------------
  1  0.2488E+05  0  0.1685E+05  0   1780.      0   1478.      1   1189.    
   ( 20,  1, 84)  ( 20,  1, 84)  ( 21,  1, 83)  ( 22,  1, 88)  ( 22,  1, 88)


 FLOW MODEL IS TRANSIENT
 FLOW MODEL CONTAINS CONSTANT-HEAD CELLS


 MAXIMUM STEPSIZE DURING WHICH ANY PARTICLE CANNOT MOVE MORE THAN ONE CELL
 =  18.40    (WHEN MIN. R.F.=1)  AT K=  18, I=   1, J=  91

 MAXIMUM STEPSIZE WHICH MEETS STABILITY CRITERION OF THE ADVECTION TERM
 (FOR PURE FINITE-DIFFERENCE OPTION, MIXELM=0) 
 =  10.40    (WHEN MIN. R.F.=1)  AT K=  16, I=   1, J=  90


 TOTAL NUMBER OF POINT SOURCES/SINKS PRESENT IN THE FLOW MODEL =    30

 MAXIMUM STEPSIZE WHICH MEETS STABILITY CRITERION OF THE SINK & SOURCE TERM
 =  14.93    (WHEN MIN. R.F.=1)  AT K=  17, I=   1, J=  91

 MAXIMUM STEPSIZE WHICH MEETS STABILITY CRITERION OF THE DISPERSION TERM
 =  5.428    (WHEN MIN. R.F.=1)  AT K=  16, I=   1, J=  89
     1 CALLS TO GCG PACKAGE FOR TRANSPORT TIME STEP 160 IN FLOW TIME STEP   1 STRESS PERIOD   1
     4 TOTAL ITERATIONS
  MAXIMUM CONCENTRATION CHANGES FOR EACH ITERATION:
  MAX. CHANGE LAYER,ROW,COL MAX. CHANGE LAYER,ROW,COL MAX. CHANGE LAYER,ROW,COL MAX. CHANGE LAYER,ROW,COL MAX. CHANGE LAYER,ROW,COL
 ------------------------------------------------------------------------------------------------------------------------------------
   0.3311     ( 16,  1, 90)  0.7184E-03 ( 17,  1, 89)  0.1805E-04 ( 16,  1, 89)  0.1325E-06 ( 17,  1, 88)



 >>>>>>>>>>>>>>>>>>>>>>>>>>>>>>>>>>>>>>>>>>>>>>>>>>>>>>>FOR COMPONENT NO. 01<<<<<<<<<<<<<<<<<<<<<<<<<<<<<<<<<<<<<<<<<<<<<<<<<<<<<<<


                                            -------------------------------------------
                                                      TRANSPORT STEP NO.  160
                                            -------------------------------------------

 TOTAL ELAPSED TIME SINCE BEGINNING OF SIMULATION =   1282.409    D   
 .....................................................................

                     CUMMULATIVE MASS BUDGETS AT END OF TRANSPORT STEP  160, TIME STEP    1, STRESS PERIOD    1
                     ------------------------------------------------------------------------------------------

                                                             IN                           OUT
                                                      ----------------             ----------------
                               CONSTANT CONCENTRATION:    0.000000                    0.000000    
                                        CONSTANT HEAD:   0.1657328E+08              -0.1987891E+08
                                             RECHARGE:    0.000000                    0.000000    
                                MASS STORAGE (SOLUTE):   0.2429935E+08              -0.2099372E+08
                            ---------------------------------------------------------------------------
                                              [TOTAL]:   0.4087378E+08 KG           -0.4087378E+08 KG  

                                                          NET (IN - OUT):   0.9793259    
                                                   DISCREPANCY (PERCENT):   0.2395976E-05
0WARNING: NUMERICAL OSCILLATION ENCOUNTERED
 ONE OR MORE CELL CONCENTRATIONS LESS THAN CRHOREF
 SMALLEST DENSITY =  0.100E+04
 AT CELL (I,J,K) = (   1,  67,   8)

 
 SOLVING FOR HEAD 


     2 CALLS TO PCG ROUTINE FOR TIME STEP   1 IN STRESS PERIOD    1
     5 TOTAL ITERATIONS

 MAXIMUM HEAD CHANGE FOR EACH ITERATION (1 INDICATES THE FIRST INNER ITERATION):

    HEAD CHANGE    HEAD CHANGE    HEAD CHANGE    HEAD CHANGE    HEAD CHANGE 
   LAYER,ROW,COL  LAYER,ROW,COL  LAYER,ROW,COL  LAYER,ROW,COL  LAYER,ROW,COL
 ---------------------------------------------------------------------------
  1 -0.2183E-02  0 -0.2069E-02  0  0.2031E-02  0 -0.8775E-03  1 -0.6516E-03
   ( 23,  1, 72)  ( 10,  1, 12)  ( 10,  1, 12)  ( 11,  1, 58)  ( 11,  1, 69)

 MAXIMUM RESIDUAL FOR EACH ITERATION (1 INDICATES THE FIRST INNER ITERATION):

    RESIDUAL       RESIDUAL       RESIDUAL       RESIDUAL       RESIDUAL    
   LAYER,ROW,COL  LAYER,ROW,COL  LAYER,ROW,COL  LAYER,ROW,COL  LAYER,ROW,COL
 ---------------------------------------------------------------------------
  1  0.2271E+05  0  0.1543E+05  0  -1985.      0   1526.      1   1232.    
   ( 20,  1, 84)  ( 20,  1, 84)  ( 18,  1, 84)  ( 22,  1, 84)  ( 22,  1, 84)


 FLOW MODEL IS TRANSIENT
 FLOW MODEL CONTAINS CONSTANT-HEAD CELLS


 MAXIMUM STEPSIZE DURING WHICH ANY PARTICLE CANNOT MOVE MORE THAN ONE CELL
 =  18.32    (WHEN MIN. R.F.=1)  AT K=  18, I=   1, J=  91

 MAXIMUM STEPSIZE WHICH MEETS STABILITY CRITERION OF THE ADVECTION TERM
 (FOR PURE FINITE-DIFFERENCE OPTION, MIXELM=0) 
 =  10.37    (WHEN MIN. R.F.=1)  AT K=  16, I=   1, J=  90


 TOTAL NUMBER OF POINT SOURCES/SINKS PRESENT IN THE FLOW MODEL =    30

 MAXIMUM STEPSIZE WHICH MEETS STABILITY CRITERION OF THE SINK & SOURCE TERM
 =  14.88    (WHEN MIN. R.F.=1)  AT K=  17, I=   1, J=  91

 MAXIMUM STEPSIZE WHICH MEETS STABILITY CRITERION OF THE DISPERSION TERM
 =  5.421    (WHEN MIN. R.F.=1)  AT K=  16, I=   1, J=  89
     1 CALLS TO GCG PACKAGE FOR TRANSPORT TIME STEP 161 IN FLOW TIME STEP   1 STRESS PERIOD   1
     4 TOTAL ITERATIONS
0WARNING: NUMERICAL OSCILLATION ENCOUNTERED
 ONE OR MORE CELL CONCENTRATIONS LESS THAN CRHOREF
 SMALLEST DENSITY =  0.100E+04
 AT CELL (I,J,K) = (   1,  67,   8)

 
 SOLVING FOR HEAD 


     2 CALLS TO PCG ROUTINE FOR TIME STEP   1 IN STRESS PERIOD    1
     5 TOTAL ITERATIONS

 MAXIMUM HEAD CHANGE FOR EACH ITERATION (1 INDICATES THE FIRST INNER ITERATION):

    HEAD CHANGE    HEAD CHANGE    HEAD CHANGE    HEAD CHANGE    HEAD CHANGE 
   LAYER,ROW,COL  LAYER,ROW,COL  LAYER,ROW,COL  LAYER,ROW,COL  LAYER,ROW,COL
 ---------------------------------------------------------------------------
  1 -0.2067E-02  0 -0.2030E-02  0  0.1993E-02  0 -0.9794E-03  1 -0.6429E-03
   ( 23,  1, 71)  ( 10,  1, 12)  ( 10,  1, 12)  ( 11,  1, 58)  ( 11,  1, 69)

 MAXIMUM RESIDUAL FOR EACH ITERATION (1 INDICATES THE FIRST INNER ITERATION):

    RESIDUAL       RESIDUAL       RESIDUAL       RESIDUAL       RESIDUAL    
   LAYER,ROW,COL  LAYER,ROW,COL  LAYER,ROW,COL  LAYER,ROW,COL  LAYER,ROW,COL
 ---------------------------------------------------------------------------
  1 -0.2093E+05  0  0.1406E+05  0  -1658.      0  -1595.      1  -1194.    
   ( 19,  1, 83)  ( 21,  1, 83)  ( 22,  1, 88)  ( 22,  1, 88)  ( 22,  1, 88)


 FLOW MODEL IS TRANSIENT
 FLOW MODEL CONTAINS CONSTANT-HEAD CELLS


 MAXIMUM STEPSIZE DURING WHICH ANY PARTICLE CANNOT MOVE MORE THAN ONE CELL
 =  18.27    (WHEN MIN. R.F.=1)  AT K=  18, I=   1, J=  91

 MAXIMUM STEPSIZE WHICH MEETS STABILITY CRITERION OF THE ADVECTION TERM
 (FOR PURE FINITE-DIFFERENCE OPTION, MIXELM=0) 
 =  10.35    (WHEN MIN. R.F.=1)  AT K=  16, I=   1, J=  90


 TOTAL NUMBER OF POINT SOURCES/SINKS PRESENT IN THE FLOW MODEL =    30

 MAXIMUM STEPSIZE WHICH MEETS STABILITY CRITERION OF THE SINK & SOURCE TERM
 =  14.84    (WHEN MIN. R.F.=1)  AT K=  17, I=   1, J=  91

 MAXIMUM STEPSIZE WHICH MEETS STABILITY CRITERION OF THE DISPERSION TERM
 =  5.409    (WHEN MIN. R.F.=1)  AT K=  16, I=   1, J=  89
     1 CALLS TO GCG PACKAGE FOR TRANSPORT TIME STEP 162 IN FLOW TIME STEP   1 STRESS PERIOD   1
     4 TOTAL ITERATIONS
0WARNING: NUMERICAL OSCILLATION ENCOUNTERED
 ONE OR MORE CELL CONCENTRATIONS LESS THAN CRHOREF
 SMALLEST DENSITY =  0.100E+04
 AT CELL (I,J,K) = (   1,  67,   8)

 
 SOLVING FOR HEAD 


     2 CALLS TO PCG ROUTINE FOR TIME STEP   1 IN STRESS PERIOD    1
     5 TOTAL ITERATIONS

 MAXIMUM HEAD CHANGE FOR EACH ITERATION (1 INDICATES THE FIRST INNER ITERATION):

    HEAD CHANGE    HEAD CHANGE    HEAD CHANGE    HEAD CHANGE    HEAD CHANGE 
   LAYER,ROW,COL  LAYER,ROW,COL  LAYER,ROW,COL  LAYER,ROW,COL  LAYER,ROW,COL
 ---------------------------------------------------------------------------
  1 -0.2049E-02  0 -0.1995E-02  0  0.1975E-02  0 -0.8772E-03  1 -0.5920E-03
   ( 23,  1, 71)  ( 10,  1, 12)  ( 10,  1, 12)  ( 11,  1, 58)  ( 11,  1, 69)

 MAXIMUM RESIDUAL FOR EACH ITERATION (1 INDICATES THE FIRST INNER ITERATION):

    RESIDUAL       RESIDUAL       RESIDUAL       RESIDUAL       RESIDUAL    
   LAYER,ROW,COL  LAYER,ROW,COL  LAYER,ROW,COL  LAYER,ROW,COL  LAYER,ROW,COL
 ---------------------------------------------------------------------------
  1 -0.2009E+05  0 -0.1339E+05  0  -1530.      0  -1517.      1  -1215.    
   ( 19,  1, 83)  ( 19,  1, 83)  ( 22,  1, 89)  ( 22,  1, 89)  ( 22,  1, 89)


 FLOW MODEL IS TRANSIENT
 FLOW MODEL CONTAINS CONSTANT-HEAD CELLS


 MAXIMUM STEPSIZE DURING WHICH ANY PARTICLE CANNOT MOVE MORE THAN ONE CELL
 =  18.22    (WHEN MIN. R.F.=1)  AT K=  18, I=   1, J=  91

 MAXIMUM STEPSIZE WHICH MEETS STABILITY CRITERION OF THE ADVECTION TERM
 (FOR PURE FINITE-DIFFERENCE OPTION, MIXELM=0) 
 =  10.31    (WHEN MIN. R.F.=1)  AT K=  16, I=   1, J=  90


 TOTAL NUMBER OF POINT SOURCES/SINKS PRESENT IN THE FLOW MODEL =    30

 MAXIMUM STEPSIZE WHICH MEETS STABILITY CRITERION OF THE SINK & SOURCE TERM
 =  14.79    (WHEN MIN. R.F.=1)  AT K=  17, I=   1, J=  91

 MAXIMUM STEPSIZE WHICH MEETS STABILITY CRITERION OF THE DISPERSION TERM
 =  5.392    (WHEN MIN. R.F.=1)  AT K=  16, I=   1, J=  89
     1 CALLS TO GCG PACKAGE FOR TRANSPORT TIME STEP 163 IN FLOW TIME STEP   1 STRESS PERIOD   1
     4 TOTAL ITERATIONS
0WARNING: NUMERICAL OSCILLATION ENCOUNTERED
 ONE OR MORE CELL CONCENTRATIONS LESS THAN CRHOREF
 SMALLEST DENSITY =  0.100E+04
 AT CELL (I,J,K) = (   1,  67,   8)

 
 SOLVING FOR HEAD 


     2 CALLS TO PCG ROUTINE FOR TIME STEP   1 IN STRESS PERIOD    1
     5 TOTAL ITERATIONS

 MAXIMUM HEAD CHANGE FOR EACH ITERATION (1 INDICATES THE FIRST INNER ITERATION):

    HEAD CHANGE    HEAD CHANGE    HEAD CHANGE    HEAD CHANGE    HEAD CHANGE 
   LAYER,ROW,COL  LAYER,ROW,COL  LAYER,ROW,COL  LAYER,ROW,COL  LAYER,ROW,COL
 ---------------------------------------------------------------------------
  1 -0.2074E-02  0 -0.1976E-02  0  0.1950E-02  0 -0.8430E-03  1 -0.6234E-03
   ( 23,  1, 71)  ( 10,  1, 12)  ( 10,  1, 12)  ( 11,  1, 59)  ( 11,  1, 69)

 MAXIMUM RESIDUAL FOR EACH ITERATION (1 INDICATES THE FIRST INNER ITERATION):

    RESIDUAL       RESIDUAL       RESIDUAL       RESIDUAL       RESIDUAL    
   LAYER,ROW,COL  LAYER,ROW,COL  LAYER,ROW,COL  LAYER,ROW,COL  LAYER,ROW,COL
 ---------------------------------------------------------------------------
  1 -0.1912E+05  0 -0.1303E+05  0   1852.      0   1740.      1   1393.    
   ( 19,  1, 83)  ( 19,  1, 83)  ( 17,  1, 89)  ( 17,  1, 89)  ( 17,  1, 89)


 FLOW MODEL IS TRANSIENT
 FLOW MODEL CONTAINS CONSTANT-HEAD CELLS


 MAXIMUM STEPSIZE DURING WHICH ANY PARTICLE CANNOT MOVE MORE THAN ONE CELL
 =  18.17    (WHEN MIN. R.F.=1)  AT K=  18, I=   1, J=  91

 MAXIMUM STEPSIZE WHICH MEETS STABILITY CRITERION OF THE ADVECTION TERM
 (FOR PURE FINITE-DIFFERENCE OPTION, MIXELM=0) 
 =  10.29    (WHEN MIN. R.F.=1)  AT K=  16, I=   1, J=  90


 TOTAL NUMBER OF POINT SOURCES/SINKS PRESENT IN THE FLOW MODEL =    30

 MAXIMUM STEPSIZE WHICH MEETS STABILITY CRITERION OF THE SINK & SOURCE TERM
 =  14.76    (WHEN MIN. R.F.=1)  AT K=  17, I=   1, J=  91

 MAXIMUM STEPSIZE WHICH MEETS STABILITY CRITERION OF THE DISPERSION TERM
 =  5.382    (WHEN MIN. R.F.=1)  AT K=  16, I=   1, J=  89
     1 CALLS TO GCG PACKAGE FOR TRANSPORT TIME STEP 164 IN FLOW TIME STEP   1 STRESS PERIOD   1
     4 TOTAL ITERATIONS
0WARNING: NUMERICAL OSCILLATION ENCOUNTERED
 ONE OR MORE CELL CONCENTRATIONS LESS THAN CRHOREF
 SMALLEST DENSITY =  0.100E+04
 AT CELL (I,J,K) = (   1,  67,   8)

 
 SOLVING FOR HEAD 


     2 CALLS TO PCG ROUTINE FOR TIME STEP   1 IN STRESS PERIOD    1
     5 TOTAL ITERATIONS

 MAXIMUM HEAD CHANGE FOR EACH ITERATION (1 INDICATES THE FIRST INNER ITERATION):

    HEAD CHANGE    HEAD CHANGE    HEAD CHANGE    HEAD CHANGE    HEAD CHANGE 
   LAYER,ROW,COL  LAYER,ROW,COL  LAYER,ROW,COL  LAYER,ROW,COL  LAYER,ROW,COL
 ---------------------------------------------------------------------------
  1 -0.2020E-02  0 -0.1976E-02  0  0.1938E-02  0 -0.9657E-03  1 -0.6154E-03
   ( 23,  1, 71)  ( 10,  1, 12)  ( 10,  1, 12)  ( 11,  1, 59)  ( 11,  1, 69)

 MAXIMUM RESIDUAL FOR EACH ITERATION (1 INDICATES THE FIRST INNER ITERATION):

    RESIDUAL       RESIDUAL       RESIDUAL       RESIDUAL       RESIDUAL    
   LAYER,ROW,COL  LAYER,ROW,COL  LAYER,ROW,COL  LAYER,ROW,COL  LAYER,ROW,COL
 ---------------------------------------------------------------------------
  1 -0.1951E+05  0 -0.1337E+05  0   1737.      0   1517.      1  -1177.    
   ( 16,  1, 89)  ( 16,  1, 89)  ( 19,  1, 88)  ( 19,  1, 88)  ( 22,  1, 88)


 FLOW MODEL IS TRANSIENT
 FLOW MODEL CONTAINS CONSTANT-HEAD CELLS


 MAXIMUM STEPSIZE DURING WHICH ANY PARTICLE CANNOT MOVE MORE THAN ONE CELL
 =  18.10    (WHEN MIN. R.F.=1)  AT K=  18, I=   1, J=  91

 MAXIMUM STEPSIZE WHICH MEETS STABILITY CRITERION OF THE ADVECTION TERM
 (FOR PURE FINITE-DIFFERENCE OPTION, MIXELM=0) 
 =  10.27    (WHEN MIN. R.F.=1)  AT K=  16, I=   1, J=  90


 TOTAL NUMBER OF POINT SOURCES/SINKS PRESENT IN THE FLOW MODEL =    30

 MAXIMUM STEPSIZE WHICH MEETS STABILITY CRITERION OF THE SINK & SOURCE TERM
 =  14.71    (WHEN MIN. R.F.=1)  AT K=  17, I=   1, J=  91

 MAXIMUM STEPSIZE WHICH MEETS STABILITY CRITERION OF THE DISPERSION TERM
 =  5.374    (WHEN MIN. R.F.=1)  AT K=  16, I=   1, J=  89
     1 CALLS TO GCG PACKAGE FOR TRANSPORT TIME STEP 165 IN FLOW TIME STEP   1 STRESS PERIOD   1
     4 TOTAL ITERATIONS
  MAXIMUM CONCENTRATION CHANGES FOR EACH ITERATION:
  MAX. CHANGE LAYER,ROW,COL MAX. CHANGE LAYER,ROW,COL MAX. CHANGE LAYER,ROW,COL MAX. CHANGE LAYER,ROW,COL MAX. CHANGE LAYER,ROW,COL
 ------------------------------------------------------------------------------------------------------------------------------------
   0.3309     ( 16,  1, 90)  0.7114E-03 ( 17,  1, 89)  0.1790E-04 ( 16,  1, 89)  0.1293E-06 ( 17,  1, 88)
0WARNING: NUMERICAL OSCILLATION ENCOUNTERED
 ONE OR MORE CELL CONCENTRATIONS LESS THAN CRHOREF
 SMALLEST DENSITY =  0.100E+04
 AT CELL (I,J,K) = (   1,  67,   8)

 
 SOLVING FOR HEAD 


     2 CALLS TO PCG ROUTINE FOR TIME STEP   1 IN STRESS PERIOD    1
     5 TOTAL ITERATIONS

 MAXIMUM HEAD CHANGE FOR EACH ITERATION (1 INDICATES THE FIRST INNER ITERATION):

    HEAD CHANGE    HEAD CHANGE    HEAD CHANGE    HEAD CHANGE    HEAD CHANGE 
   LAYER,ROW,COL  LAYER,ROW,COL  LAYER,ROW,COL  LAYER,ROW,COL  LAYER,ROW,COL
 ---------------------------------------------------------------------------
  1 -0.1954E-02  0 -0.1928E-02  0  0.1895E-02  0 -0.8718E-03  1 -0.5971E-03
   ( 23,  1, 71)  ( 10,  1, 12)  ( 10,  1, 12)  ( 11,  1, 59)  ( 11,  1, 69)

 MAXIMUM RESIDUAL FOR EACH ITERATION (1 INDICATES THE FIRST INNER ITERATION):

    RESIDUAL       RESIDUAL       RESIDUAL       RESIDUAL       RESIDUAL    
   LAYER,ROW,COL  LAYER,ROW,COL  LAYER,ROW,COL  LAYER,ROW,COL  LAYER,ROW,COL
 ---------------------------------------------------------------------------
  1 -0.1862E+05  0 -0.1240E+05  0   1848.      0   1736.      1   1371.    
   ( 22,  1, 56)  ( 22,  1, 56)  ( 17,  1, 88)  ( 17,  1, 88)  ( 17,  1, 88)


 FLOW MODEL IS TRANSIENT
 FLOW MODEL CONTAINS CONSTANT-HEAD CELLS


 MAXIMUM STEPSIZE DURING WHICH ANY PARTICLE CANNOT MOVE MORE THAN ONE CELL
 =  18.06    (WHEN MIN. R.F.=1)  AT K=  18, I=   1, J=  91

 MAXIMUM STEPSIZE WHICH MEETS STABILITY CRITERION OF THE ADVECTION TERM
 (FOR PURE FINITE-DIFFERENCE OPTION, MIXELM=0) 
 =  10.24    (WHEN MIN. R.F.=1)  AT K=  16, I=   1, J=  90


 TOTAL NUMBER OF POINT SOURCES/SINKS PRESENT IN THE FLOW MODEL =    30

 MAXIMUM STEPSIZE WHICH MEETS STABILITY CRITERION OF THE SINK & SOURCE TERM
 =  14.67    (WHEN MIN. R.F.=1)  AT K=  17, I=   1, J=  91

 MAXIMUM STEPSIZE WHICH MEETS STABILITY CRITERION OF THE DISPERSION TERM
 =  5.359    (WHEN MIN. R.F.=1)  AT K=  16, I=   1, J=  89
     1 CALLS TO GCG PACKAGE FOR TRANSPORT TIME STEP 166 IN FLOW TIME STEP   1 STRESS PERIOD   1
     4 TOTAL ITERATIONS
0WARNING: NUMERICAL OSCILLATION ENCOUNTERED
 ONE OR MORE CELL CONCENTRATIONS LESS THAN CRHOREF
 SMALLEST DENSITY =  0.100E+04
 AT CELL (I,J,K) = (   1,  67,   8)

 
 SOLVING FOR HEAD 


     2 CALLS TO PCG ROUTINE FOR TIME STEP   1 IN STRESS PERIOD    1
     5 TOTAL ITERATIONS

 MAXIMUM HEAD CHANGE FOR EACH ITERATION (1 INDICATES THE FIRST INNER ITERATION):

    HEAD CHANGE    HEAD CHANGE    HEAD CHANGE    HEAD CHANGE    HEAD CHANGE 
   LAYER,ROW,COL  LAYER,ROW,COL  LAYER,ROW,COL  LAYER,ROW,COL  LAYER,ROW,COL
 ---------------------------------------------------------------------------
  1 -0.1970E-02  0 -0.1913E-02  0  0.1897E-02  0 -0.8658E-03  1 -0.5926E-03
   ( 23,  1, 71)  ( 10,  1, 12)  ( 10,  1, 12)  ( 11,  1, 59)  ( 11,  1, 69)

 MAXIMUM RESIDUAL FOR EACH ITERATION (1 INDICATES THE FIRST INNER ITERATION):

    RESIDUAL       RESIDUAL       RESIDUAL       RESIDUAL       RESIDUAL    
   LAYER,ROW,COL  LAYER,ROW,COL  LAYER,ROW,COL  LAYER,ROW,COL  LAYER,ROW,COL
 ---------------------------------------------------------------------------
  1 -0.1855E+05  0 -0.1262E+05  0   1741.      0   1658.      1   1315.    
   ( 22,  1, 56)  ( 16,  1, 88)  ( 17,  1, 89)  ( 22,  1, 88)  ( 22,  1, 88)


 FLOW MODEL IS TRANSIENT
 FLOW MODEL CONTAINS CONSTANT-HEAD CELLS


 MAXIMUM STEPSIZE DURING WHICH ANY PARTICLE CANNOT MOVE MORE THAN ONE CELL
 =  18.02    (WHEN MIN. R.F.=1)  AT K=  18, I=   1, J=  91

 MAXIMUM STEPSIZE WHICH MEETS STABILITY CRITERION OF THE ADVECTION TERM
 (FOR PURE FINITE-DIFFERENCE OPTION, MIXELM=0) 
 =  10.21    (WHEN MIN. R.F.=1)  AT K=  16, I=   1, J=  90


 TOTAL NUMBER OF POINT SOURCES/SINKS PRESENT IN THE FLOW MODEL =    30

 MAXIMUM STEPSIZE WHICH MEETS STABILITY CRITERION OF THE SINK & SOURCE TERM
 =  14.64    (WHEN MIN. R.F.=1)  AT K=  17, I=   1, J=  91

 MAXIMUM STEPSIZE WHICH MEETS STABILITY CRITERION OF THE DISPERSION TERM
 =  5.346    (WHEN MIN. R.F.=1)  AT K=  16, I=   1, J=  89
     1 CALLS TO GCG PACKAGE FOR TRANSPORT TIME STEP 167 IN FLOW TIME STEP   1 STRESS PERIOD   1
     4 TOTAL ITERATIONS
0WARNING: NUMERICAL OSCILLATION ENCOUNTERED
 ONE OR MORE CELL CONCENTRATIONS LESS THAN CRHOREF
 SMALLEST DENSITY =  0.100E+04
 AT CELL (I,J,K) = (   1,  67,   8)

 
 SOLVING FOR HEAD 


     2 CALLS TO PCG ROUTINE FOR TIME STEP   1 IN STRESS PERIOD    1
     5 TOTAL ITERATIONS

 MAXIMUM HEAD CHANGE FOR EACH ITERATION (1 INDICATES THE FIRST INNER ITERATION):

    HEAD CHANGE    HEAD CHANGE    HEAD CHANGE    HEAD CHANGE    HEAD CHANGE 
   LAYER,ROW,COL  LAYER,ROW,COL  LAYER,ROW,COL  LAYER,ROW,COL  LAYER,ROW,COL
 ---------------------------------------------------------------------------
  1 -0.1983E-02  0 -0.1915E-02  0  0.1881E-02  0 -0.8996E-03  1 -0.6197E-03
   ( 23,  1, 71)  ( 10,  1, 12)  ( 10,  1, 12)  ( 11,  1, 59)  ( 11,  1, 69)

 MAXIMUM RESIDUAL FOR EACH ITERATION (1 INDICATES THE FIRST INNER ITERATION):

    RESIDUAL       RESIDUAL       RESIDUAL       RESIDUAL       RESIDUAL    
   LAYER,ROW,COL  LAYER,ROW,COL  LAYER,ROW,COL  LAYER,ROW,COL  LAYER,ROW,COL
 ---------------------------------------------------------------------------
  1 -0.1841E+05  0 -0.1253E+05  0   1586.      0   1453.      1  -1096.    
   ( 16,  1, 89)  ( 16,  1, 89)  ( 20,  1, 88)  ( 20,  1, 88)  ( 17,  1, 88)


 FLOW MODEL IS TRANSIENT
 FLOW MODEL CONTAINS CONSTANT-HEAD CELLS


 MAXIMUM STEPSIZE DURING WHICH ANY PARTICLE CANNOT MOVE MORE THAN ONE CELL
 =  17.95    (WHEN MIN. R.F.=1)  AT K=  18, I=   1, J=  91

 MAXIMUM STEPSIZE WHICH MEETS STABILITY CRITERION OF THE ADVECTION TERM
 (FOR PURE FINITE-DIFFERENCE OPTION, MIXELM=0) 
 =  10.20    (WHEN MIN. R.F.=1)  AT K=  16, I=   1, J=  90


 TOTAL NUMBER OF POINT SOURCES/SINKS PRESENT IN THE FLOW MODEL =    30

 MAXIMUM STEPSIZE WHICH MEETS STABILITY CRITERION OF THE SINK & SOURCE TERM
 =  14.59    (WHEN MIN. R.F.=1)  AT K=  17, I=   1, J=  91

 MAXIMUM STEPSIZE WHICH MEETS STABILITY CRITERION OF THE DISPERSION TERM
 =  5.340    (WHEN MIN. R.F.=1)  AT K=  16, I=   1, J=  89
     1 CALLS TO GCG PACKAGE FOR TRANSPORT TIME STEP 168 IN FLOW TIME STEP   1 STRESS PERIOD   1
     4 TOTAL ITERATIONS
0WARNING: NUMERICAL OSCILLATION ENCOUNTERED
 ONE OR MORE CELL CONCENTRATIONS LESS THAN CRHOREF
 SMALLEST DENSITY =  0.100E+04
 AT CELL (I,J,K) = (   1,  67,   8)

 
 SOLVING FOR HEAD 


     2 CALLS TO PCG ROUTINE FOR TIME STEP   1 IN STRESS PERIOD    1
     5 TOTAL ITERATIONS

 MAXIMUM HEAD CHANGE FOR EACH ITERATION (1 INDICATES THE FIRST INNER ITERATION):

    HEAD CHANGE    HEAD CHANGE    HEAD CHANGE    HEAD CHANGE    HEAD CHANGE 
   LAYER,ROW,COL  LAYER,ROW,COL  LAYER,ROW,COL  LAYER,ROW,COL  LAYER,ROW,COL
 ---------------------------------------------------------------------------
  1 -0.1885E-02  0 -0.1883E-02  0  0.1845E-02  0 -0.9342E-03  1 -0.6135E-03
   ( 23,  1, 71)  ( 10,  1, 12)  ( 10,  1, 12)  ( 11,  1, 59)  ( 11,  1, 69)

 MAXIMUM RESIDUAL FOR EACH ITERATION (1 INDICATES THE FIRST INNER ITERATION):

    RESIDUAL       RESIDUAL       RESIDUAL       RESIDUAL       RESIDUAL    
   LAYER,ROW,COL  LAYER,ROW,COL  LAYER,ROW,COL  LAYER,ROW,COL  LAYER,ROW,COL
 ---------------------------------------------------------------------------
  1 -0.1873E+05  0 -0.1230E+05  0  -1798.      0  -1735.      1  -1298.    
   ( 22,  1, 56)  ( 22,  1, 56)  ( 22,  1, 88)  ( 22,  1, 88)  ( 22,  1, 88)


 FLOW MODEL IS TRANSIENT
 FLOW MODEL CONTAINS CONSTANT-HEAD CELLS


 MAXIMUM STEPSIZE DURING WHICH ANY PARTICLE CANNOT MOVE MORE THAN ONE CELL
 =  17.90    (WHEN MIN. R.F.=1)  AT K=  18, I=   1, J=  91

 MAXIMUM STEPSIZE WHICH MEETS STABILITY CRITERION OF THE ADVECTION TERM
 (FOR PURE FINITE-DIFFERENCE OPTION, MIXELM=0) 
 =  10.17    (WHEN MIN. R.F.=1)  AT K=  16, I=   1, J=  90


 TOTAL NUMBER OF POINT SOURCES/SINKS PRESENT IN THE FLOW MODEL =    30

 MAXIMUM STEPSIZE WHICH MEETS STABILITY CRITERION OF THE SINK & SOURCE TERM
 =  14.55    (WHEN MIN. R.F.=1)  AT K=  17, I=   1, J=  91

 MAXIMUM STEPSIZE WHICH MEETS STABILITY CRITERION OF THE DISPERSION TERM
 =  5.329    (WHEN MIN. R.F.=1)  AT K=  16, I=   1, J=  89
     1 CALLS TO GCG PACKAGE FOR TRANSPORT TIME STEP 169 IN FLOW TIME STEP   1 STRESS PERIOD   1
     4 TOTAL ITERATIONS
0WARNING: NUMERICAL OSCILLATION ENCOUNTERED
 ONE OR MORE CELL CONCENTRATIONS LESS THAN CRHOREF
 SMALLEST DENSITY =  0.100E+04
 AT CELL (I,J,K) = (   1,  67,   8)

 
 SOLVING FOR HEAD 


     2 CALLS TO PCG ROUTINE FOR TIME STEP   1 IN STRESS PERIOD    1
     5 TOTAL ITERATIONS

 MAXIMUM HEAD CHANGE FOR EACH ITERATION (1 INDICATES THE FIRST INNER ITERATION):

    HEAD CHANGE    HEAD CHANGE    HEAD CHANGE    HEAD CHANGE    HEAD CHANGE 
   LAYER,ROW,COL  LAYER,ROW,COL  LAYER,ROW,COL  LAYER,ROW,COL  LAYER,ROW,COL
 ---------------------------------------------------------------------------
  1 -0.1881E-02  0 -0.1866E-02  0  0.1850E-02  0 -0.8755E-03  1 -0.5711E-03
   ( 23,  1, 71)  ( 10,  1, 12)  ( 10,  1, 12)  ( 11,  1, 59)  ( 11,  1, 69)

 MAXIMUM RESIDUAL FOR EACH ITERATION (1 INDICATES THE FIRST INNER ITERATION):

    RESIDUAL       RESIDUAL       RESIDUAL       RESIDUAL       RESIDUAL    
   LAYER,ROW,COL  LAYER,ROW,COL  LAYER,ROW,COL  LAYER,ROW,COL  LAYER,ROW,COL
 ---------------------------------------------------------------------------
  1 -0.1856E+05  0 -0.1218E+05  0  -1610.      0  -1616.      1  -1288.    
   ( 22,  1, 56)  ( 22,  1, 56)  ( 22,  1, 89)  ( 22,  1, 89)  ( 22,  1, 89)


 FLOW MODEL IS TRANSIENT
 FLOW MODEL CONTAINS CONSTANT-HEAD CELLS


 MAXIMUM STEPSIZE DURING WHICH ANY PARTICLE CANNOT MOVE MORE THAN ONE CELL
 =  17.87    (WHEN MIN. R.F.=1)  AT K=  18, I=   1, J=  91

 MAXIMUM STEPSIZE WHICH MEETS STABILITY CRITERION OF THE ADVECTION TERM
 (FOR PURE FINITE-DIFFERENCE OPTION, MIXELM=0) 
 =  10.14    (WHEN MIN. R.F.=1)  AT K=  16, I=   1, J=  90


 TOTAL NUMBER OF POINT SOURCES/SINKS PRESENT IN THE FLOW MODEL =    30

 MAXIMUM STEPSIZE WHICH MEETS STABILITY CRITERION OF THE SINK & SOURCE TERM
 =  14.52    (WHEN MIN. R.F.=1)  AT K=  17, I=   1, J=  91

 MAXIMUM STEPSIZE WHICH MEETS STABILITY CRITERION OF THE DISPERSION TERM
 =  5.313    (WHEN MIN. R.F.=1)  AT K=  16, I=   1, J=  89
     1 CALLS TO GCG PACKAGE FOR TRANSPORT TIME STEP 170 IN FLOW TIME STEP   1 STRESS PERIOD   1
     4 TOTAL ITERATIONS
  MAXIMUM CONCENTRATION CHANGES FOR EACH ITERATION:
  MAX. CHANGE LAYER,ROW,COL MAX. CHANGE LAYER,ROW,COL MAX. CHANGE LAYER,ROW,COL MAX. CHANGE LAYER,ROW,COL MAX. CHANGE LAYER,ROW,COL
 ------------------------------------------------------------------------------------------------------------------------------------
   0.3311     ( 16,  1, 90)  0.7168E-03 ( 17,  1, 89)  0.1810E-04 ( 16,  1, 89)  0.1337E-06 ( 17,  1, 88)



 >>>>>>>>>>>>>>>>>>>>>>>>>>>>>>>>>>>>>>>>>>>>>>>>>>>>>>>FOR COMPONENT NO. 01<<<<<<<<<<<<<<<<<<<<<<<<<<<<<<<<<<<<<<<<<<<<<<<<<<<<<<<


                                            -------------------------------------------
                                                      TRANSPORT STEP NO.  170
                                            -------------------------------------------

 TOTAL ELAPSED TIME SINCE BEGINNING OF SIMULATION =   1333.817    D   
 .....................................................................

                     CUMMULATIVE MASS BUDGETS AT END OF TRANSPORT STEP  170, TIME STEP    1, STRESS PERIOD    1
                     ------------------------------------------------------------------------------------------

                                                             IN                           OUT
                                                      ----------------             ----------------
                               CONSTANT CONCENTRATION:    0.000000                    0.000000    
                                        CONSTANT HEAD:   0.1833372E+08              -0.2163718E+08
                                             RECHARGE:    0.000000                    0.000000    
                                MASS STORAGE (SOLUTE):   0.2448957E+08              -0.2118611E+08
                            ---------------------------------------------------------------------------
                                              [TOTAL]:   0.4282445E+08 KG           -0.4282444E+08 KG  

                                                          NET (IN - OUT):    1.015209    
                                                   DISCREPANCY (PERCENT):   0.2370629E-05
0WARNING: NUMERICAL OSCILLATION ENCOUNTERED
 ONE OR MORE CELL CONCENTRATIONS LESS THAN CRHOREF
 SMALLEST DENSITY =  0.100E+04
 AT CELL (I,J,K) = (   1,  67,   8)

 
 SOLVING FOR HEAD 


     2 CALLS TO PCG ROUTINE FOR TIME STEP   1 IN STRESS PERIOD    1
     5 TOTAL ITERATIONS

 MAXIMUM HEAD CHANGE FOR EACH ITERATION (1 INDICATES THE FIRST INNER ITERATION):

    HEAD CHANGE    HEAD CHANGE    HEAD CHANGE    HEAD CHANGE    HEAD CHANGE 
   LAYER,ROW,COL  LAYER,ROW,COL  LAYER,ROW,COL  LAYER,ROW,COL  LAYER,ROW,COL
 ---------------------------------------------------------------------------
  1 -0.1917E-02  0 -0.1850E-02  0  0.1827E-02  0 -0.8323E-03  1 -0.6027E-03
   ( 23,  1, 71)  ( 10,  1, 12)  ( 10,  1, 12)  ( 11,  1, 59)  ( 11,  1, 69)

 MAXIMUM RESIDUAL FOR EACH ITERATION (1 INDICATES THE FIRST INNER ITERATION):

    RESIDUAL       RESIDUAL       RESIDUAL       RESIDUAL       RESIDUAL    
   LAYER,ROW,COL  LAYER,ROW,COL  LAYER,ROW,COL  LAYER,ROW,COL  LAYER,ROW,COL
 ---------------------------------------------------------------------------
  1 -0.1823E+05  0 -0.1232E+05  0   1864.      0   1762.      1   1398.    
   ( 22,  1, 56)  ( 22,  1, 56)  ( 17,  1, 89)  ( 17,  1, 89)  ( 17,  1, 89)


 FLOW MODEL IS TRANSIENT
 FLOW MODEL CONTAINS CONSTANT-HEAD CELLS


 MAXIMUM STEPSIZE DURING WHICH ANY PARTICLE CANNOT MOVE MORE THAN ONE CELL
 =  17.82    (WHEN MIN. R.F.=1)  AT K=  18, I=   1, J=  91

 MAXIMUM STEPSIZE WHICH MEETS STABILITY CRITERION OF THE ADVECTION TERM
 (FOR PURE FINITE-DIFFERENCE OPTION, MIXELM=0) 
 =  10.12    (WHEN MIN. R.F.=1)  AT K=  16, I=   1, J=  90


 TOTAL NUMBER OF POINT SOURCES/SINKS PRESENT IN THE FLOW MODEL =    30

 MAXIMUM STEPSIZE WHICH MEETS STABILITY CRITERION OF THE SINK & SOURCE TERM
 =  14.48    (WHEN MIN. R.F.=1)  AT K=  17, I=   1, J=  91

 MAXIMUM STEPSIZE WHICH MEETS STABILITY CRITERION OF THE DISPERSION TERM
 =  5.305    (WHEN MIN. R.F.=1)  AT K=  16, I=   1, J=  89
     1 CALLS TO GCG PACKAGE FOR TRANSPORT TIME STEP 171 IN FLOW TIME STEP   1 STRESS PERIOD   1
     4 TOTAL ITERATIONS
0WARNING: NUMERICAL OSCILLATION ENCOUNTERED
 ONE OR MORE CELL CONCENTRATIONS LESS THAN CRHOREF
 SMALLEST DENSITY =  0.100E+04
 AT CELL (I,J,K) = (   1,  67,   8)

 
 SOLVING FOR HEAD 


     2 CALLS TO PCG ROUTINE FOR TIME STEP   1 IN STRESS PERIOD    1
     5 TOTAL ITERATIONS

 MAXIMUM HEAD CHANGE FOR EACH ITERATION (1 INDICATES THE FIRST INNER ITERATION):

    HEAD CHANGE    HEAD CHANGE    HEAD CHANGE    HEAD CHANGE    HEAD CHANGE 
   LAYER,ROW,COL  LAYER,ROW,COL  LAYER,ROW,COL  LAYER,ROW,COL  LAYER,ROW,COL
 ---------------------------------------------------------------------------
  1 -0.1867E-02  0 -0.1855E-02  0  0.1821E-02  0 -0.9481E-03  1 -0.5921E-03
   ( 23,  1, 71)  ( 10,  1, 12)  ( 10,  1, 12)  ( 11,  1, 59)  ( 11,  1, 69)

 MAXIMUM RESIDUAL FOR EACH ITERATION (1 INDICATES THE FIRST INNER ITERATION):

    RESIDUAL       RESIDUAL       RESIDUAL       RESIDUAL       RESIDUAL    
   LAYER,ROW,COL  LAYER,ROW,COL  LAYER,ROW,COL  LAYER,ROW,COL  LAYER,ROW,COL
 ---------------------------------------------------------------------------
  1 -0.1961E+05  0 -0.1311E+05  0   1774.      0   1564.      1  -1196.    
   ( 16,  1, 89)  ( 16,  1, 89)  ( 19,  1, 88)  ( 19,  1, 88)  ( 22,  1, 88)


 FLOW MODEL IS TRANSIENT
 FLOW MODEL CONTAINS CONSTANT-HEAD CELLS


 MAXIMUM STEPSIZE DURING WHICH ANY PARTICLE CANNOT MOVE MORE THAN ONE CELL
 =  17.76    (WHEN MIN. R.F.=1)  AT K=  18, I=   1, J=  91

 MAXIMUM STEPSIZE WHICH MEETS STABILITY CRITERION OF THE ADVECTION TERM
 (FOR PURE FINITE-DIFFERENCE OPTION, MIXELM=0) 
 =  10.10    (WHEN MIN. R.F.=1)  AT K=  16, I=   1, J=  90


 TOTAL NUMBER OF POINT SOURCES/SINKS PRESENT IN THE FLOW MODEL =    30

 MAXIMUM STEPSIZE WHICH MEETS STABILITY CRITERION OF THE SINK & SOURCE TERM
 =  14.44    (WHEN MIN. R.F.=1)  AT K=  17, I=   1, J=  91

 MAXIMUM STEPSIZE WHICH MEETS STABILITY CRITERION OF THE DISPERSION TERM
 =  5.298    (WHEN MIN. R.F.=1)  AT K=  16, I=   1, J=  89
     1 CALLS TO GCG PACKAGE FOR TRANSPORT TIME STEP 172 IN FLOW TIME STEP   1 STRESS PERIOD   1
     4 TOTAL ITERATIONS
0WARNING: NUMERICAL OSCILLATION ENCOUNTERED
 ONE OR MORE CELL CONCENTRATIONS LESS THAN CRHOREF
 SMALLEST DENSITY =  0.100E+04
 AT CELL (I,J,K) = (   1,  67,   8)

 
 SOLVING FOR HEAD 


     2 CALLS TO PCG ROUTINE FOR TIME STEP   1 IN STRESS PERIOD    1
     5 TOTAL ITERATIONS

 MAXIMUM HEAD CHANGE FOR EACH ITERATION (1 INDICATES THE FIRST INNER ITERATION):

    HEAD CHANGE    HEAD CHANGE    HEAD CHANGE    HEAD CHANGE    HEAD CHANGE 
   LAYER,ROW,COL  LAYER,ROW,COL  LAYER,ROW,COL  LAYER,ROW,COL  LAYER,ROW,COL
 ---------------------------------------------------------------------------
  1 -0.1808E-02  0 -0.1818E-02  0  0.1790E-02  0 -0.8499E-03  1 -0.5759E-03
   ( 23,  1, 71)  ( 10,  1, 12)  ( 10,  1, 12)  ( 11,  1, 59)  ( 11,  1, 69)

 MAXIMUM RESIDUAL FOR EACH ITERATION (1 INDICATES THE FIRST INNER ITERATION):

    RESIDUAL       RESIDUAL       RESIDUAL       RESIDUAL       RESIDUAL    
   LAYER,ROW,COL  LAYER,ROW,COL  LAYER,ROW,COL  LAYER,ROW,COL  LAYER,ROW,COL
 ---------------------------------------------------------------------------
  1 -0.1843E+05  0 -0.1188E+05  0   1894.      0   1776.      1   1390.    
   ( 22,  1, 56)  ( 22,  1, 56)  ( 17,  1, 88)  ( 17,  1, 88)  ( 17,  1, 88)


 FLOW MODEL IS TRANSIENT
 FLOW MODEL CONTAINS CONSTANT-HEAD CELLS


 MAXIMUM STEPSIZE DURING WHICH ANY PARTICLE CANNOT MOVE MORE THAN ONE CELL
 =  17.72    (WHEN MIN. R.F.=1)  AT K=  18, I=   1, J=  91

 MAXIMUM STEPSIZE WHICH MEETS STABILITY CRITERION OF THE ADVECTION TERM
 (FOR PURE FINITE-DIFFERENCE OPTION, MIXELM=0) 
 =  10.08    (WHEN MIN. R.F.=1)  AT K=  16, I=   1, J=  90


 TOTAL NUMBER OF POINT SOURCES/SINKS PRESENT IN THE FLOW MODEL =    30

 MAXIMUM STEPSIZE WHICH MEETS STABILITY CRITERION OF THE SINK & SOURCE TERM
 =  14.40    (WHEN MIN. R.F.=1)  AT K=  17, I=   1, J=  91

 MAXIMUM STEPSIZE WHICH MEETS STABILITY CRITERION OF THE DISPERSION TERM
 =  5.284    (WHEN MIN. R.F.=1)  AT K=  16, I=   1, J=  89
     1 CALLS TO GCG PACKAGE FOR TRANSPORT TIME STEP 173 IN FLOW TIME STEP   1 STRESS PERIOD   1
     4 TOTAL ITERATIONS
0WARNING: NUMERICAL OSCILLATION ENCOUNTERED
 ONE OR MORE CELL CONCENTRATIONS LESS THAN CRHOREF
 SMALLEST DENSITY =  0.100E+04
 AT CELL (I,J,K) = (   1,  67,   8)

 
 SOLVING FOR HEAD 


     2 CALLS TO PCG ROUTINE FOR TIME STEP   1 IN STRESS PERIOD    1
     5 TOTAL ITERATIONS

 MAXIMUM HEAD CHANGE FOR EACH ITERATION (1 INDICATES THE FIRST INNER ITERATION):

    HEAD CHANGE    HEAD CHANGE    HEAD CHANGE    HEAD CHANGE    HEAD CHANGE 
   LAYER,ROW,COL  LAYER,ROW,COL  LAYER,ROW,COL  LAYER,ROW,COL  LAYER,ROW,COL
 ---------------------------------------------------------------------------
  1 -0.1841E-02  0 -0.1813E-02  0  0.1802E-02  0 -0.8430E-03  1 -0.5774E-03
   ( 23,  1, 71)  ( 10,  1, 12)  ( 10,  1, 12)  ( 11,  1, 59)  ( 11,  1, 69)

 MAXIMUM RESIDUAL FOR EACH ITERATION (1 INDICATES THE FIRST INNER ITERATION):

    RESIDUAL       RESIDUAL       RESIDUAL       RESIDUAL       RESIDUAL    
   LAYER,ROW,COL  LAYER,ROW,COL  LAYER,ROW,COL  LAYER,ROW,COL  LAYER,ROW,COL
 ---------------------------------------------------------------------------
  1 -0.1810E+05  0 -0.1187E+05  0   1681.      0   1668.      1   1315.    
   ( 22,  1, 56)  ( 22,  1, 56)  ( 22,  1, 88)  ( 22,  1, 88)  ( 22,  1, 88)


 FLOW MODEL IS TRANSIENT
 FLOW MODEL CONTAINS CONSTANT-HEAD CELLS


 MAXIMUM STEPSIZE DURING WHICH ANY PARTICLE CANNOT MOVE MORE THAN ONE CELL
 =  17.69    (WHEN MIN. R.F.=1)  AT K=  18, I=   1, J=  91

 MAXIMUM STEPSIZE WHICH MEETS STABILITY CRITERION OF THE ADVECTION TERM
 (FOR PURE FINITE-DIFFERENCE OPTION, MIXELM=0) 
 =  10.05    (WHEN MIN. R.F.=1)  AT K=  16, I=   1, J=  90


 TOTAL NUMBER OF POINT SOURCES/SINKS PRESENT IN THE FLOW MODEL =    30

 MAXIMUM STEPSIZE WHICH MEETS STABILITY CRITERION OF THE SINK & SOURCE TERM
 =  14.37    (WHEN MIN. R.F.=1)  AT K=  17, I=   1, J=  91

 MAXIMUM STEPSIZE WHICH MEETS STABILITY CRITERION OF THE DISPERSION TERM
 =  5.272    (WHEN MIN. R.F.=1)  AT K=  16, I=   1, J=  89
     1 CALLS TO GCG PACKAGE FOR TRANSPORT TIME STEP 174 IN FLOW TIME STEP   1 STRESS PERIOD   1
     4 TOTAL ITERATIONS
0WARNING: NUMERICAL OSCILLATION ENCOUNTERED
 ONE OR MORE CELL CONCENTRATIONS LESS THAN CRHOREF
 SMALLEST DENSITY =  0.100E+04
 AT CELL (I,J,K) = (   1,  67,   8)

 
 SOLVING FOR HEAD 


     2 CALLS TO PCG ROUTINE FOR TIME STEP   1 IN STRESS PERIOD    1
     5 TOTAL ITERATIONS

 MAXIMUM HEAD CHANGE FOR EACH ITERATION (1 INDICATES THE FIRST INNER ITERATION):

    HEAD CHANGE    HEAD CHANGE    HEAD CHANGE    HEAD CHANGE    HEAD CHANGE 
   LAYER,ROW,COL  LAYER,ROW,COL  LAYER,ROW,COL  LAYER,ROW,COL  LAYER,ROW,COL
 ---------------------------------------------------------------------------
  1 -0.1852E-02  0 -0.1815E-02  0  0.1788E-02  0 -0.8791E-03  1 -0.5964E-03
   ( 23,  1, 71)  ( 10,  1, 12)  ( 10,  1, 12)  ( 11,  1, 59)  ( 11,  1, 69)

 MAXIMUM RESIDUAL FOR EACH ITERATION (1 INDICATES THE FIRST INNER ITERATION):

    RESIDUAL       RESIDUAL       RESIDUAL       RESIDUAL       RESIDUAL    
   LAYER,ROW,COL  LAYER,ROW,COL  LAYER,ROW,COL  LAYER,ROW,COL  LAYER,ROW,COL
 ---------------------------------------------------------------------------
  1 -0.1777E+05  0 -0.1167E+05  0   1597.      0   1480.      1  -1113.    
   ( 22,  1, 56)  ( 22,  1, 56)  ( 20,  1, 88)  ( 20,  1, 88)  ( 17,  1, 88)


 FLOW MODEL IS TRANSIENT
 FLOW MODEL CONTAINS CONSTANT-HEAD CELLS


 MAXIMUM STEPSIZE DURING WHICH ANY PARTICLE CANNOT MOVE MORE THAN ONE CELL
 =  17.63    (WHEN MIN. R.F.=1)  AT K=  18, I=   1, J=  91

 MAXIMUM STEPSIZE WHICH MEETS STABILITY CRITERION OF THE ADVECTION TERM
 (FOR PURE FINITE-DIFFERENCE OPTION, MIXELM=0) 
 =  10.04    (WHEN MIN. R.F.=1)  AT K=  16, I=   1, J=  90


 TOTAL NUMBER OF POINT SOURCES/SINKS PRESENT IN THE FLOW MODEL =    30

 MAXIMUM STEPSIZE WHICH MEETS STABILITY CRITERION OF THE SINK & SOURCE TERM
 =  14.34    (WHEN MIN. R.F.=1)  AT K=  17, I=   1, J=  91

 MAXIMUM STEPSIZE WHICH MEETS STABILITY CRITERION OF THE DISPERSION TERM
 =  5.267    (WHEN MIN. R.F.=1)  AT K=  16, I=   1, J=  89
     1 CALLS TO GCG PACKAGE FOR TRANSPORT TIME STEP 175 IN FLOW TIME STEP   1 STRESS PERIOD   1
     4 TOTAL ITERATIONS
  MAXIMUM CONCENTRATION CHANGES FOR EACH ITERATION:
  MAX. CHANGE LAYER,ROW,COL MAX. CHANGE LAYER,ROW,COL MAX. CHANGE LAYER,ROW,COL MAX. CHANGE LAYER,ROW,COL MAX. CHANGE LAYER,ROW,COL
 ------------------------------------------------------------------------------------------------------------------------------------
   0.3308     ( 16,  1, 90)  0.7082E-03 ( 17,  1, 89)  0.1794E-04 ( 16,  1, 89)  0.1294E-06 ( 17,  1, 88)
0WARNING: NUMERICAL OSCILLATION ENCOUNTERED
 ONE OR MORE CELL CONCENTRATIONS LESS THAN CRHOREF
 SMALLEST DENSITY =  0.100E+04
 AT CELL (I,J,K) = (   1,  67,   8)

 
 SOLVING FOR HEAD 


     2 CALLS TO PCG ROUTINE FOR TIME STEP   1 IN STRESS PERIOD    1
     5 TOTAL ITERATIONS

 MAXIMUM HEAD CHANGE FOR EACH ITERATION (1 INDICATES THE FIRST INNER ITERATION):

    HEAD CHANGE    HEAD CHANGE    HEAD CHANGE    HEAD CHANGE    HEAD CHANGE 
   LAYER,ROW,COL  LAYER,ROW,COL  LAYER,ROW,COL  LAYER,ROW,COL  LAYER,ROW,COL
 ---------------------------------------------------------------------------
  1 -0.1764E-02  0 -0.1786E-02  0  0.1755E-02  0 -0.8883E-03  1 -0.5778E-03
   ( 23,  1, 71)  ( 10,  1, 12)  ( 10,  1, 12)  ( 11,  1, 59)  ( 11,  1, 69)

 MAXIMUM RESIDUAL FOR EACH ITERATION (1 INDICATES THE FIRST INNER ITERATION):

    RESIDUAL       RESIDUAL       RESIDUAL       RESIDUAL       RESIDUAL    
   LAYER,ROW,COL  LAYER,ROW,COL  LAYER,ROW,COL  LAYER,ROW,COL  LAYER,ROW,COL
 ---------------------------------------------------------------------------
  1 -0.1813E+05  0 -0.1146E+05  0  -1803.      0  -1754.      1  -1321.    
   ( 22,  1, 56)  ( 22,  1, 56)  ( 22,  1, 88)  ( 22,  1, 88)  ( 22,  1, 88)


 FLOW MODEL IS TRANSIENT
 FLOW MODEL CONTAINS CONSTANT-HEAD CELLS


 MAXIMUM STEPSIZE DURING WHICH ANY PARTICLE CANNOT MOVE MORE THAN ONE CELL
 =  17.59    (WHEN MIN. R.F.=1)  AT K=  18, I=   1, J=  91

 MAXIMUM STEPSIZE WHICH MEETS STABILITY CRITERION OF THE ADVECTION TERM
 (FOR PURE FINITE-DIFFERENCE OPTION, MIXELM=0) 
 =  10.02    (WHEN MIN. R.F.=1)  AT K=  16, I=   1, J=  90


 TOTAL NUMBER OF POINT SOURCES/SINKS PRESENT IN THE FLOW MODEL =    30

 MAXIMUM STEPSIZE WHICH MEETS STABILITY CRITERION OF THE SINK & SOURCE TERM
 =  14.30    (WHEN MIN. R.F.=1)  AT K=  17, I=   1, J=  91

 MAXIMUM STEPSIZE WHICH MEETS STABILITY CRITERION OF THE DISPERSION TERM
 =  5.257    (WHEN MIN. R.F.=1)  AT K=  16, I=   1, J=  89
     1 CALLS TO GCG PACKAGE FOR TRANSPORT TIME STEP 176 IN FLOW TIME STEP   1 STRESS PERIOD   1
     4 TOTAL ITERATIONS
0WARNING: NUMERICAL OSCILLATION ENCOUNTERED
 ONE OR MORE CELL CONCENTRATIONS LESS THAN CRHOREF
 SMALLEST DENSITY =  0.100E+04
 AT CELL (I,J,K) = (   1,  67,   8)

 
 SOLVING FOR HEAD 


     2 CALLS TO PCG ROUTINE FOR TIME STEP   1 IN STRESS PERIOD    1
     5 TOTAL ITERATIONS

 MAXIMUM HEAD CHANGE FOR EACH ITERATION (1 INDICATES THE FIRST INNER ITERATION):

    HEAD CHANGE    HEAD CHANGE    HEAD CHANGE    HEAD CHANGE    HEAD CHANGE 
   LAYER,ROW,COL  LAYER,ROW,COL  LAYER,ROW,COL  LAYER,ROW,COL  LAYER,ROW,COL
 ---------------------------------------------------------------------------
  1 -0.1772E-02  0 -0.1781E-02  0  0.1771E-02  0 -0.8227E-03  1 -0.5476E-03
   ( 23,  1, 71)  ( 10,  1, 12)  ( 10,  1, 12)  ( 11,  1, 59)  ( 11,  1, 69)

 MAXIMUM RESIDUAL FOR EACH ITERATION (1 INDICATES THE FIRST INNER ITERATION):

    RESIDUAL       RESIDUAL       RESIDUAL       RESIDUAL       RESIDUAL    
   LAYER,ROW,COL  LAYER,ROW,COL  LAYER,ROW,COL  LAYER,ROW,COL  LAYER,ROW,COL
 ---------------------------------------------------------------------------
  1 -0.1777E+05  0 -0.1123E+05  0   1549.      0  -1535.      1  -1219.    
   ( 22,  1, 56)  ( 22,  1, 56)  ( 19,  1, 89)  ( 22,  1, 89)  ( 22,  1, 89)


 FLOW MODEL IS TRANSIENT
 FLOW MODEL CONTAINS CONSTANT-HEAD CELLS


 MAXIMUM STEPSIZE DURING WHICH ANY PARTICLE CANNOT MOVE MORE THAN ONE CELL
 =  17.56    (WHEN MIN. R.F.=1)  AT K=  18, I=   1, J=  91

 MAXIMUM STEPSIZE WHICH MEETS STABILITY CRITERION OF THE ADVECTION TERM
 (FOR PURE FINITE-DIFFERENCE OPTION, MIXELM=0) 
 =  9.990    (WHEN MIN. R.F.=1)  AT K=  16, I=   1, J=  90


 TOTAL NUMBER OF POINT SOURCES/SINKS PRESENT IN THE FLOW MODEL =    30

 MAXIMUM STEPSIZE WHICH MEETS STABILITY CRITERION OF THE SINK & SOURCE TERM
 =  14.27    (WHEN MIN. R.F.=1)  AT K=  17, I=   1, J=  91

 MAXIMUM STEPSIZE WHICH MEETS STABILITY CRITERION OF THE DISPERSION TERM
 =  5.242    (WHEN MIN. R.F.=1)  AT K=  16, I=   1, J=  89
     1 CALLS TO GCG PACKAGE FOR TRANSPORT TIME STEP 177 IN FLOW TIME STEP   1 STRESS PERIOD   1
     4 TOTAL ITERATIONS
0WARNING: NUMERICAL OSCILLATION ENCOUNTERED
 ONE OR MORE CELL CONCENTRATIONS LESS THAN CRHOREF
 SMALLEST DENSITY =  0.100E+04
 AT CELL (I,J,K) = (   1,  67,   8)

 
 SOLVING FOR HEAD 


     2 CALLS TO PCG ROUTINE FOR TIME STEP   1 IN STRESS PERIOD    1
     5 TOTAL ITERATIONS

 MAXIMUM HEAD CHANGE FOR EACH ITERATION (1 INDICATES THE FIRST INNER ITERATION):

    HEAD CHANGE    HEAD CHANGE    HEAD CHANGE    HEAD CHANGE    HEAD CHANGE 
   LAYER,ROW,COL  LAYER,ROW,COL  LAYER,ROW,COL  LAYER,ROW,COL  LAYER,ROW,COL
 ---------------------------------------------------------------------------
  1 -0.1804E-02  0 -0.1769E-02  0  0.1754E-02  0 -0.8136E-03  1 -0.5826E-03
   ( 23,  1, 71)  ( 10,  1, 12)  ( 10,  1, 12)  ( 11,  1, 59)  ( 11,  1, 69)

 MAXIMUM RESIDUAL FOR EACH ITERATION (1 INDICATES THE FIRST INNER ITERATION):

    RESIDUAL       RESIDUAL       RESIDUAL       RESIDUAL       RESIDUAL    
   LAYER,ROW,COL  LAYER,ROW,COL  LAYER,ROW,COL  LAYER,ROW,COL  LAYER,ROW,COL
 ---------------------------------------------------------------------------
  1 -0.1746E+05  0 -0.1137E+05  0   1769.      0   1675.      1   1313.    
   ( 22,  1, 56)  ( 22,  1, 56)  ( 17,  1, 89)  ( 17,  1, 89)  ( 17,  1, 89)


 FLOW MODEL IS TRANSIENT
 FLOW MODEL CONTAINS CONSTANT-HEAD CELLS


 MAXIMUM STEPSIZE DURING WHICH ANY PARTICLE CANNOT MOVE MORE THAN ONE CELL
 =  17.52    (WHEN MIN. R.F.=1)  AT K=  18, I=   1, J=  91

 MAXIMUM STEPSIZE WHICH MEETS STABILITY CRITERION OF THE ADVECTION TERM
 (FOR PURE FINITE-DIFFERENCE OPTION, MIXELM=0) 
 =  9.972    (WHEN MIN. R.F.=1)  AT K=  16, I=   1, J=  90


 TOTAL NUMBER OF POINT SOURCES/SINKS PRESENT IN THE FLOW MODEL =    30

 MAXIMUM STEPSIZE WHICH MEETS STABILITY CRITERION OF THE SINK & SOURCE TERM
 =  14.24    (WHEN MIN. R.F.=1)  AT K=  17, I=   1, J=  91

 MAXIMUM STEPSIZE WHICH MEETS STABILITY CRITERION OF THE DISPERSION TERM
 =  5.235    (WHEN MIN. R.F.=1)  AT K=  16, I=   1, J=  89
     1 CALLS TO GCG PACKAGE FOR TRANSPORT TIME STEP 178 IN FLOW TIME STEP   1 STRESS PERIOD   1
     4 TOTAL ITERATIONS
0WARNING: NUMERICAL OSCILLATION ENCOUNTERED
 ONE OR MORE CELL CONCENTRATIONS LESS THAN CRHOREF
 SMALLEST DENSITY =  0.100E+04
 AT CELL (I,J,K) = (   1,  67,   8)

 
 SOLVING FOR HEAD 


     2 CALLS TO PCG ROUTINE FOR TIME STEP   1 IN STRESS PERIOD    1
     5 TOTAL ITERATIONS

 MAXIMUM HEAD CHANGE FOR EACH ITERATION (1 INDICATES THE FIRST INNER ITERATION):

    HEAD CHANGE    HEAD CHANGE    HEAD CHANGE    HEAD CHANGE    HEAD CHANGE 
   LAYER,ROW,COL  LAYER,ROW,COL  LAYER,ROW,COL  LAYER,ROW,COL  LAYER,ROW,COL
 ---------------------------------------------------------------------------
  1 -0.1755E-02  0 -0.1768E-02  0  0.1742E-02  0 -0.9058E-03  1 -0.5547E-03
   ( 23,  1, 71)  ( 10,  1, 12)  ( 10,  1, 12)  ( 11,  1, 59)  ( 11,  1, 69)

 MAXIMUM RESIDUAL FOR EACH ITERATION (1 INDICATES THE FIRST INNER ITERATION):

    RESIDUAL       RESIDUAL       RESIDUAL       RESIDUAL       RESIDUAL    
   LAYER,ROW,COL  LAYER,ROW,COL  LAYER,ROW,COL  LAYER,ROW,COL  LAYER,ROW,COL
 ---------------------------------------------------------------------------
  1 -0.1847E+05  0 -0.1182E+05  0   1633.      0   1436.      1   1092.    
   ( 16,  1, 89)  ( 16,  1, 89)  ( 19,  1, 88)  ( 19,  1, 88)  ( 22,  1, 89)


 FLOW MODEL IS TRANSIENT
 FLOW MODEL CONTAINS CONSTANT-HEAD CELLS


 MAXIMUM STEPSIZE DURING WHICH ANY PARTICLE CANNOT MOVE MORE THAN ONE CELL
 =  17.46    (WHEN MIN. R.F.=1)  AT K=  18, I=   1, J=  91

 MAXIMUM STEPSIZE WHICH MEETS STABILITY CRITERION OF THE ADVECTION TERM
 (FOR PURE FINITE-DIFFERENCE OPTION, MIXELM=0) 
 =  9.957    (WHEN MIN. R.F.=1)  AT K=  16, I=   1, J=  90


 TOTAL NUMBER OF POINT SOURCES/SINKS PRESENT IN THE FLOW MODEL =    30

 MAXIMUM STEPSIZE WHICH MEETS STABILITY CRITERION OF THE SINK & SOURCE TERM
 =  14.21    (WHEN MIN. R.F.=1)  AT K=  17, I=   1, J=  91

 MAXIMUM STEPSIZE WHICH MEETS STABILITY CRITERION OF THE DISPERSION TERM
 =  5.229    (WHEN MIN. R.F.=1)  AT K=  16, I=   1, J=  89
     1 CALLS TO GCG PACKAGE FOR TRANSPORT TIME STEP 179 IN FLOW TIME STEP   1 STRESS PERIOD   1
     4 TOTAL ITERATIONS
0WARNING: NUMERICAL OSCILLATION ENCOUNTERED
 ONE OR MORE CELL CONCENTRATIONS LESS THAN CRHOREF
 SMALLEST DENSITY =  0.100E+04
 AT CELL (I,J,K) = (   1,  67,   8)

 
 SOLVING FOR HEAD 


     2 CALLS TO PCG ROUTINE FOR TIME STEP   1 IN STRESS PERIOD    1
     5 TOTAL ITERATIONS

 MAXIMUM HEAD CHANGE FOR EACH ITERATION (1 INDICATES THE FIRST INNER ITERATION):

    HEAD CHANGE    HEAD CHANGE    HEAD CHANGE    HEAD CHANGE    HEAD CHANGE 
   LAYER,ROW,COL  LAYER,ROW,COL  LAYER,ROW,COL  LAYER,ROW,COL  LAYER,ROW,COL
 ---------------------------------------------------------------------------
  1 -0.1709E-02  0 -0.1738E-02  0  0.1715E-02  0 -0.7816E-03  1 -0.5369E-03
   ( 23,  1, 71)  ( 10,  1, 12)  ( 10,  1, 12)  ( 11,  1, 59)  ( 11,  1, 69)

 MAXIMUM RESIDUAL FOR EACH ITERATION (1 INDICATES THE FIRST INNER ITERATION):

    RESIDUAL       RESIDUAL       RESIDUAL       RESIDUAL       RESIDUAL    
   LAYER,ROW,COL  LAYER,ROW,COL  LAYER,ROW,COL  LAYER,ROW,COL  LAYER,ROW,COL
 ---------------------------------------------------------------------------
  1 -0.1747E+05  0 -0.1081E+05  0   1803.      0   1669.      1   1302.    
   ( 22,  1, 56)  ( 22,  1, 56)  ( 17,  1, 88)  ( 17,  1, 88)  ( 17,  1, 88)


 FLOW MODEL IS TRANSIENT
 FLOW MODEL CONTAINS CONSTANT-HEAD CELLS


 MAXIMUM STEPSIZE DURING WHICH ANY PARTICLE CANNOT MOVE MORE THAN ONE CELL
 =  17.43    (WHEN MIN. R.F.=1)  AT K=  18, I=   1, J=  91

 MAXIMUM STEPSIZE WHICH MEETS STABILITY CRITERION OF THE ADVECTION TERM
 (FOR PURE FINITE-DIFFERENCE OPTION, MIXELM=0) 
 =  9.933    (WHEN MIN. R.F.=1)  AT K=  16, I=   1, J=  90


 TOTAL NUMBER OF POINT SOURCES/SINKS PRESENT IN THE FLOW MODEL =    30

 MAXIMUM STEPSIZE WHICH MEETS STABILITY CRITERION OF THE SINK & SOURCE TERM
 =  14.17    (WHEN MIN. R.F.=1)  AT K=  17, I=   1, J=  91

 MAXIMUM STEPSIZE WHICH MEETS STABILITY CRITERION OF THE DISPERSION TERM
 =  5.217    (WHEN MIN. R.F.=1)  AT K=  16, I=   1, J=  89
     1 CALLS TO GCG PACKAGE FOR TRANSPORT TIME STEP 180 IN FLOW TIME STEP   1 STRESS PERIOD   1
     4 TOTAL ITERATIONS
  MAXIMUM CONCENTRATION CHANGES FOR EACH ITERATION:
  MAX. CHANGE LAYER,ROW,COL MAX. CHANGE LAYER,ROW,COL MAX. CHANGE LAYER,ROW,COL MAX. CHANGE LAYER,ROW,COL MAX. CHANGE LAYER,ROW,COL
 ------------------------------------------------------------------------------------------------------------------------------------
   0.3309     ( 16,  1, 90)  0.7122E-03 ( 17,  1, 89)  0.1808E-04 ( 16,  1, 89)  0.1328E-06 ( 17,  1, 88)



 >>>>>>>>>>>>>>>>>>>>>>>>>>>>>>>>>>>>>>>>>>>>>>>>>>>>>>>FOR COMPONENT NO. 01<<<<<<<<<<<<<<<<<<<<<<<<<<<<<<<<<<<<<<<<<<<<<<<<<<<<<<<


                                            -------------------------------------------
                                                      TRANSPORT STEP NO.  180
                                            -------------------------------------------

 TOTAL ELAPSED TIME SINCE BEGINNING OF SIMULATION =   1384.053    D   
 .....................................................................

                     CUMMULATIVE MASS BUDGETS AT END OF TRANSPORT STEP  180, TIME STEP    1, STRESS PERIOD    1
                     ------------------------------------------------------------------------------------------

                                                             IN                           OUT
                                                      ----------------             ----------------
                               CONSTANT CONCENTRATION:    0.000000                    0.000000    
                                        CONSTANT HEAD:   0.2009367E+08              -0.2338923E+08
                                             RECHARGE:    0.000000                    0.000000    
                                MASS STORAGE (SOLUTE):   0.2466083E+08              -0.2136527E+08
                            ---------------------------------------------------------------------------
                                              [TOTAL]:   0.4475565E+08 KG           -0.4475565E+08 KG  

                                                          NET (IN - OUT):    1.055054    
                                                   DISCREPANCY (PERCENT):   0.2357364E-05
0WARNING: NUMERICAL OSCILLATION ENCOUNTERED
 ONE OR MORE CELL CONCENTRATIONS LESS THAN CRHOREF
 SMALLEST DENSITY =  0.100E+04
 AT CELL (I,J,K) = (   1,  67,   8)

 
 SOLVING FOR HEAD 


     2 CALLS TO PCG ROUTINE FOR TIME STEP   1 IN STRESS PERIOD    1
     5 TOTAL ITERATIONS

 MAXIMUM HEAD CHANGE FOR EACH ITERATION (1 INDICATES THE FIRST INNER ITERATION):

    HEAD CHANGE    HEAD CHANGE    HEAD CHANGE    HEAD CHANGE    HEAD CHANGE 
   LAYER,ROW,COL  LAYER,ROW,COL  LAYER,ROW,COL  LAYER,ROW,COL  LAYER,ROW,COL
 ---------------------------------------------------------------------------
  1 -0.1740E-02  0 -0.1742E-02  0  0.1736E-02  0 -0.8062E-03  1 -0.5474E-03
   ( 23,  1, 71)  ( 10,  1, 12)  ( 10,  1, 12)  ( 11,  1, 60)  ( 11,  1, 69)

 MAXIMUM RESIDUAL FOR EACH ITERATION (1 INDICATES THE FIRST INNER ITERATION):

    RESIDUAL       RESIDUAL       RESIDUAL       RESIDUAL       RESIDUAL    
   LAYER,ROW,COL  LAYER,ROW,COL  LAYER,ROW,COL  LAYER,ROW,COL  LAYER,ROW,COL
 ---------------------------------------------------------------------------
  1 -0.1709E+05  0 -0.1072E+05  0   1563.      0   1561.      1   1230.    
   ( 22,  1, 56)  ( 22,  1, 56)  ( 22,  1, 88)  ( 22,  1, 88)  ( 22,  1, 88)


 FLOW MODEL IS TRANSIENT
 FLOW MODEL CONTAINS CONSTANT-HEAD CELLS


 MAXIMUM STEPSIZE DURING WHICH ANY PARTICLE CANNOT MOVE MORE THAN ONE CELL
 =  17.40    (WHEN MIN. R.F.=1)  AT K=  18, I=   1, J=  91

 MAXIMUM STEPSIZE WHICH MEETS STABILITY CRITERION OF THE ADVECTION TERM
 (FOR PURE FINITE-DIFFERENCE OPTION, MIXELM=0) 
 =  9.911    (WHEN MIN. R.F.=1)  AT K=  16, I=   1, J=  90


 TOTAL NUMBER OF POINT SOURCES/SINKS PRESENT IN THE FLOW MODEL =    30

 MAXIMUM STEPSIZE WHICH MEETS STABILITY CRITERION OF THE SINK & SOURCE TERM
 =  14.15    (WHEN MIN. R.F.=1)  AT K=  17, I=   1, J=  91

 MAXIMUM STEPSIZE WHICH MEETS STABILITY CRITERION OF THE DISPERSION TERM
 =  5.205    (WHEN MIN. R.F.=1)  AT K=  16, I=   1, J=  89
     1 CALLS TO GCG PACKAGE FOR TRANSPORT TIME STEP 181 IN FLOW TIME STEP   1 STRESS PERIOD   1
     4 TOTAL ITERATIONS
0WARNING: NUMERICAL OSCILLATION ENCOUNTERED
 ONE OR MORE CELL CONCENTRATIONS LESS THAN CRHOREF
 SMALLEST DENSITY =  0.100E+04
 AT CELL (I,J,K) = (   1,  67,   8)

 
 SOLVING FOR HEAD 


     2 CALLS TO PCG ROUTINE FOR TIME STEP   1 IN STRESS PERIOD    1
     5 TOTAL ITERATIONS

 MAXIMUM HEAD CHANGE FOR EACH ITERATION (1 INDICATES THE FIRST INNER ITERATION):

    HEAD CHANGE    HEAD CHANGE    HEAD CHANGE    HEAD CHANGE    HEAD CHANGE 
   LAYER,ROW,COL  LAYER,ROW,COL  LAYER,ROW,COL  LAYER,ROW,COL  LAYER,ROW,COL
 ---------------------------------------------------------------------------
  1 -0.1744E-02  0 -0.1735E-02  0  0.1715E-02  0 -0.8384E-03  1 -0.5584E-03
   ( 23,  1, 71)  ( 10,  1, 12)  ( 10,  1, 12)  ( 11,  1, 59)  ( 11,  1, 69)

 MAXIMUM RESIDUAL FOR EACH ITERATION (1 INDICATES THE FIRST INNER ITERATION):

    RESIDUAL       RESIDUAL       RESIDUAL       RESIDUAL       RESIDUAL    
   LAYER,ROW,COL  LAYER,ROW,COL  LAYER,ROW,COL  LAYER,ROW,COL  LAYER,ROW,COL
 ---------------------------------------------------------------------------
  1 -0.1683E+05  0 -0.1060E+05  0   1476.      0  -1378.      1  -1056.    
   ( 22,  1, 56)  ( 22,  1, 56)  ( 20,  1, 88)  ( 17,  1, 88)  ( 17,  1, 88)


 FLOW MODEL IS TRANSIENT
 FLOW MODEL CONTAINS CONSTANT-HEAD CELLS


 MAXIMUM STEPSIZE DURING WHICH ANY PARTICLE CANNOT MOVE MORE THAN ONE CELL
 =  17.35    (WHEN MIN. R.F.=1)  AT K=  18, I=   1, J=  91

 MAXIMUM STEPSIZE WHICH MEETS STABILITY CRITERION OF THE ADVECTION TERM
 (FOR PURE FINITE-DIFFERENCE OPTION, MIXELM=0) 
 =  9.898    (WHEN MIN. R.F.=1)  AT K=  16, I=   1, J=  90


 TOTAL NUMBER OF POINT SOURCES/SINKS PRESENT IN THE FLOW MODEL =    30

 MAXIMUM STEPSIZE WHICH MEETS STABILITY CRITERION OF THE SINK & SOURCE TERM
 =  14.12    (WHEN MIN. R.F.=1)  AT K=  17, I=   1, J=  91

 MAXIMUM STEPSIZE WHICH MEETS STABILITY CRITERION OF THE DISPERSION TERM
 =  5.201    (WHEN MIN. R.F.=1)  AT K=  16, I=   1, J=  89
     1 CALLS TO GCG PACKAGE FOR TRANSPORT TIME STEP 182 IN FLOW TIME STEP   1 STRESS PERIOD   1
     4 TOTAL ITERATIONS
0WARNING: NUMERICAL OSCILLATION ENCOUNTERED
 ONE OR MORE CELL CONCENTRATIONS LESS THAN CRHOREF
 SMALLEST DENSITY =  0.100E+04
 AT CELL (I,J,K) = (   1,  67,   8)

 
 SOLVING FOR HEAD 


     2 CALLS TO PCG ROUTINE FOR TIME STEP   1 IN STRESS PERIOD    1
     5 TOTAL ITERATIONS

 MAXIMUM HEAD CHANGE FOR EACH ITERATION (1 INDICATES THE FIRST INNER ITERATION):

    HEAD CHANGE    HEAD CHANGE    HEAD CHANGE    HEAD CHANGE    HEAD CHANGE 
   LAYER,ROW,COL  LAYER,ROW,COL  LAYER,ROW,COL  LAYER,ROW,COL  LAYER,ROW,COL
 ---------------------------------------------------------------------------
  1 -0.1674E-02  0 -0.1710E-02  0  0.1685E-02  0 -0.8220E-03  1 -0.5302E-03
   ( 23,  1, 71)  ( 10,  1, 12)  ( 10,  1, 12)  ( 11,  1, 59)  ( 11,  1, 69)

 MAXIMUM RESIDUAL FOR EACH ITERATION (1 INDICATES THE FIRST INNER ITERATION):

    RESIDUAL       RESIDUAL       RESIDUAL       RESIDUAL       RESIDUAL    
   LAYER,ROW,COL  LAYER,ROW,COL  LAYER,ROW,COL  LAYER,ROW,COL  LAYER,ROW,COL
 ---------------------------------------------------------------------------
  1 -0.1699E+05  0 -0.1029E+05  0  -1666.      0  -1625.      1  -1238.    
   ( 22,  1, 56)  ( 22,  1, 56)  ( 22,  1, 88)  ( 22,  1, 88)  ( 22,  1, 88)


 FLOW MODEL IS TRANSIENT
 FLOW MODEL CONTAINS CONSTANT-HEAD CELLS


 MAXIMUM STEPSIZE DURING WHICH ANY PARTICLE CANNOT MOVE MORE THAN ONE CELL
 =  17.31    (WHEN MIN. R.F.=1)  AT K=  18, I=   1, J=  91

 MAXIMUM STEPSIZE WHICH MEETS STABILITY CRITERION OF THE ADVECTION TERM
 (FOR PURE FINITE-DIFFERENCE OPTION, MIXELM=0) 
 =  9.880    (WHEN MIN. R.F.=1)  AT K=  16, I=   1, J=  90


 TOTAL NUMBER OF POINT SOURCES/SINKS PRESENT IN THE FLOW MODEL =    30

 MAXIMUM STEPSIZE WHICH MEETS STABILITY CRITERION OF THE SINK & SOURCE TERM
 =  14.08    (WHEN MIN. R.F.=1)  AT K=  17, I=   1, J=  91

 MAXIMUM STEPSIZE WHICH MEETS STABILITY CRITERION OF THE DISPERSION TERM
 =  5.192    (WHEN MIN. R.F.=1)  AT K=  16, I=   1, J=  89
     1 CALLS TO GCG PACKAGE FOR TRANSPORT TIME STEP 183 IN FLOW TIME STEP   1 STRESS PERIOD   1
     4 TOTAL ITERATIONS
0WARNING: NUMERICAL OSCILLATION ENCOUNTERED
 ONE OR MORE CELL CONCENTRATIONS LESS THAN CRHOREF
 SMALLEST DENSITY =  0.100E+04
 AT CELL (I,J,K) = (   1,  67,   8)

 
 SOLVING FOR HEAD 


     2 CALLS TO PCG ROUTINE FOR TIME STEP   1 IN STRESS PERIOD    1
     5 TOTAL ITERATIONS

 MAXIMUM HEAD CHANGE FOR EACH ITERATION (1 INDICATES THE FIRST INNER ITERATION):

    HEAD CHANGE    HEAD CHANGE    HEAD CHANGE    HEAD CHANGE    HEAD CHANGE 
   LAYER,ROW,COL  LAYER,ROW,COL  LAYER,ROW,COL  LAYER,ROW,COL  LAYER,ROW,COL
 ---------------------------------------------------------------------------
  1 -0.1683E-02  0 -0.1715E-02  0  0.1707E-02  0 -0.7690E-03  1 -0.5153E-03
   ( 23,  1, 71)  ( 10,  1, 12)  ( 10,  1, 12)  ( 11,  1, 60)  ( 11,  1, 69)

 MAXIMUM RESIDUAL FOR EACH ITERATION (1 INDICATES THE FIRST INNER ITERATION):

    RESIDUAL       RESIDUAL       RESIDUAL       RESIDUAL       RESIDUAL    
   LAYER,ROW,COL  LAYER,ROW,COL  LAYER,ROW,COL  LAYER,ROW,COL  LAYER,ROW,COL
 ---------------------------------------------------------------------------
  1 -0.1655E+05  0  -9968.      0   1434.      0  -1354.      1   1085.    
   ( 22,  1, 56)  ( 22,  1, 56)  ( 19,  1, 89)  ( 22,  1, 89)  ( 17,  1, 88)


 FLOW MODEL IS TRANSIENT
 FLOW MODEL CONTAINS CONSTANT-HEAD CELLS


 MAXIMUM STEPSIZE DURING WHICH ANY PARTICLE CANNOT MOVE MORE THAN ONE CELL
 =  17.29    (WHEN MIN. R.F.=1)  AT K=  18, I=   1, J=  91

 MAXIMUM STEPSIZE WHICH MEETS STABILITY CRITERION OF THE ADVECTION TERM
 (FOR PURE FINITE-DIFFERENCE OPTION, MIXELM=0) 
 =  9.856    (WHEN MIN. R.F.=1)  AT K=  16, I=   1, J=  90


 TOTAL NUMBER OF POINT SOURCES/SINKS PRESENT IN THE FLOW MODEL =    30

 MAXIMUM STEPSIZE WHICH MEETS STABILITY CRITERION OF THE SINK & SOURCE TERM
 =  14.05    (WHEN MIN. R.F.=1)  AT K=  17, I=   1, J=  91

 MAXIMUM STEPSIZE WHICH MEETS STABILITY CRITERION OF THE DISPERSION TERM
 =  5.179    (WHEN MIN. R.F.=1)  AT K=  16, I=   1, J=  89
     1 CALLS TO GCG PACKAGE FOR TRANSPORT TIME STEP 184 IN FLOW TIME STEP   1 STRESS PERIOD   1
     4 TOTAL ITERATIONS
0WARNING: NUMERICAL OSCILLATION ENCOUNTERED
 ONE OR MORE CELL CONCENTRATIONS LESS THAN CRHOREF
 SMALLEST DENSITY =  0.100E+04
 AT CELL (I,J,K) = (   1,  67,   8)

 
 SOLVING FOR HEAD 


     2 CALLS TO PCG ROUTINE FOR TIME STEP   1 IN STRESS PERIOD    1
     5 TOTAL ITERATIONS

 MAXIMUM HEAD CHANGE FOR EACH ITERATION (1 INDICATES THE FIRST INNER ITERATION):

    HEAD CHANGE    HEAD CHANGE    HEAD CHANGE    HEAD CHANGE    HEAD CHANGE 
   LAYER,ROW,COL  LAYER,ROW,COL  LAYER,ROW,COL  LAYER,ROW,COL  LAYER,ROW,COL
 ---------------------------------------------------------------------------
  1 -0.1704E-02  0 -0.1701E-02  0  0.1692E-02  0 -0.7903E-03  1 -0.5463E-03
   ( 23,  1, 71)  ( 10,  1, 12)  ( 10,  1, 12)  ( 11,  1, 60)  ( 11,  1, 69)

 MAXIMUM RESIDUAL FOR EACH ITERATION (1 INDICATES THE FIRST INNER ITERATION):

    RESIDUAL       RESIDUAL       RESIDUAL       RESIDUAL       RESIDUAL    
   LAYER,ROW,COL  LAYER,ROW,COL  LAYER,ROW,COL  LAYER,ROW,COL  LAYER,ROW,COL
 ---------------------------------------------------------------------------
  1 -0.1633E+05  0 -0.1012E+05  0   1618.      0   1528.      1   1190.    
   ( 22,  1, 56)  ( 22,  1, 56)  ( 17,  1, 89)  ( 17,  1, 89)  ( 17,  1, 89)


 FLOW MODEL IS TRANSIENT
 FLOW MODEL CONTAINS CONSTANT-HEAD CELLS


 MAXIMUM STEPSIZE DURING WHICH ANY PARTICLE CANNOT MOVE MORE THAN ONE CELL
 =  17.25    (WHEN MIN. R.F.=1)  AT K=  18, I=   1, J=  91

 MAXIMUM STEPSIZE WHICH MEETS STABILITY CRITERION OF THE ADVECTION TERM
 (FOR PURE FINITE-DIFFERENCE OPTION, MIXELM=0) 
 =  9.840    (WHEN MIN. R.F.=1)  AT K=  16, I=   1, J=  90


 TOTAL NUMBER OF POINT SOURCES/SINKS PRESENT IN THE FLOW MODEL =    30

 MAXIMUM STEPSIZE WHICH MEETS STABILITY CRITERION OF THE SINK & SOURCE TERM
 =  14.03    (WHEN MIN. R.F.=1)  AT K=  17, I=   1, J=  91

 MAXIMUM STEPSIZE WHICH MEETS STABILITY CRITERION OF THE DISPERSION TERM
 =  5.172    (WHEN MIN. R.F.=1)  AT K=  16, I=   1, J=  89
     1 CALLS TO GCG PACKAGE FOR TRANSPORT TIME STEP 185 IN FLOW TIME STEP   1 STRESS PERIOD   1
     4 TOTAL ITERATIONS
  MAXIMUM CONCENTRATION CHANGES FOR EACH ITERATION:
  MAX. CHANGE LAYER,ROW,COL MAX. CHANGE LAYER,ROW,COL MAX. CHANGE LAYER,ROW,COL MAX. CHANGE LAYER,ROW,COL MAX. CHANGE LAYER,ROW,COL
 ------------------------------------------------------------------------------------------------------------------------------------
   0.3307     ( 16,  1, 90)  0.7085E-03 ( 17,  1, 89)  0.1807E-04 ( 16,  1, 89)  0.1316E-06 ( 17,  1, 88)
0WARNING: NUMERICAL OSCILLATION ENCOUNTERED
 ONE OR MORE CELL CONCENTRATIONS LESS THAN CRHOREF
 SMALLEST DENSITY =  0.100E+04
 AT CELL (I,J,K) = (   1,  67,   8)

 
 SOLVING FOR HEAD 


     2 CALLS TO PCG ROUTINE FOR TIME STEP   1 IN STRESS PERIOD    1
     5 TOTAL ITERATIONS

 MAXIMUM HEAD CHANGE FOR EACH ITERATION (1 INDICATES THE FIRST INNER ITERATION):

    HEAD CHANGE    HEAD CHANGE    HEAD CHANGE    HEAD CHANGE    HEAD CHANGE 
   LAYER,ROW,COL  LAYER,ROW,COL  LAYER,ROW,COL  LAYER,ROW,COL  LAYER,ROW,COL
 ---------------------------------------------------------------------------
  1 -0.1667E-02  0 -0.1695E-02  0  0.1676E-02  0 -0.8373E-03  1 -0.5061E-03
   ( 23,  1, 71)  ( 10,  1, 12)  ( 10,  1, 12)  ( 11,  1, 59)  ( 11,  1, 69)

 MAXIMUM RESIDUAL FOR EACH ITERATION (1 INDICATES THE FIRST INNER ITERATION):

    RESIDUAL       RESIDUAL       RESIDUAL       RESIDUAL       RESIDUAL    
   LAYER,ROW,COL  LAYER,ROW,COL  LAYER,ROW,COL  LAYER,ROW,COL  LAYER,ROW,COL
 ---------------------------------------------------------------------------
  1 -0.1678E+05  0 -0.1023E+05  0   1420.      0   1282.      1   1026.    
   ( 16,  1, 89)  ( 16,  1, 89)  ( 19,  1, 88)  ( 22,  1, 89)  ( 22,  1, 89)


 FLOW MODEL IS TRANSIENT
 FLOW MODEL CONTAINS CONSTANT-HEAD CELLS


 MAXIMUM STEPSIZE DURING WHICH ANY PARTICLE CANNOT MOVE MORE THAN ONE CELL
 =  17.20    (WHEN MIN. R.F.=1)  AT K=  18, I=   1, J=  91

 MAXIMUM STEPSIZE WHICH MEETS STABILITY CRITERION OF THE ADVECTION TERM
 (FOR PURE FINITE-DIFFERENCE OPTION, MIXELM=0) 
 =  9.827    (WHEN MIN. R.F.=1)  AT K=  16, I=   1, J=  90


 TOTAL NUMBER OF POINT SOURCES/SINKS PRESENT IN THE FLOW MODEL =    30

 MAXIMUM STEPSIZE WHICH MEETS STABILITY CRITERION OF THE SINK & SOURCE TERM
 =  14.00    (WHEN MIN. R.F.=1)  AT K=  17, I=   1, J=  91

 MAXIMUM STEPSIZE WHICH MEETS STABILITY CRITERION OF THE DISPERSION TERM
 =  5.167    (WHEN MIN. R.F.=1)  AT K=  16, I=   1, J=  89
     1 CALLS TO GCG PACKAGE FOR TRANSPORT TIME STEP 186 IN FLOW TIME STEP   1 STRESS PERIOD   1
     4 TOTAL ITERATIONS
0WARNING: NUMERICAL OSCILLATION ENCOUNTERED
 ONE OR MORE CELL CONCENTRATIONS LESS THAN CRHOREF
 SMALLEST DENSITY =  0.100E+04
 AT CELL (I,J,K) = (   1,  67,   8)

 
 SOLVING FOR HEAD 


     2 CALLS TO PCG ROUTINE FOR TIME STEP   1 IN STRESS PERIOD    1
     5 TOTAL ITERATIONS

 MAXIMUM HEAD CHANGE FOR EACH ITERATION (1 INDICATES THE FIRST INNER ITERATION):

    HEAD CHANGE    HEAD CHANGE    HEAD CHANGE    HEAD CHANGE    HEAD CHANGE 
   LAYER,ROW,COL  LAYER,ROW,COL  LAYER,ROW,COL  LAYER,ROW,COL  LAYER,ROW,COL
 ---------------------------------------------------------------------------
  1 -0.1635E-02  0 -0.1679E-02  0  0.1659E-02  0 -0.7236E-03  1 -0.4952E-03
   ( 23,  1, 71)  ( 10,  1, 12)  ( 10,  1, 12)  ( 11,  1, 60)  ( 11,  1, 69)

 MAXIMUM RESIDUAL FOR EACH ITERATION (1 INDICATES THE FIRST INNER ITERATION):

    RESIDUAL       RESIDUAL       RESIDUAL       RESIDUAL       RESIDUAL    
   LAYER,ROW,COL  LAYER,ROW,COL  LAYER,ROW,COL  LAYER,ROW,COL  LAYER,ROW,COL
 ---------------------------------------------------------------------------
  1 -0.1605E+05  0  -9463.      0   1605.      0   1467.      1   1139.    
   ( 22,  1, 56)  ( 22,  1, 56)  ( 17,  1, 88)  ( 17,  1, 88)  ( 17,  1, 88)


 FLOW MODEL IS TRANSIENT
 FLOW MODEL CONTAINS CONSTANT-HEAD CELLS


 MAXIMUM STEPSIZE DURING WHICH ANY PARTICLE CANNOT MOVE MORE THAN ONE CELL
 =  17.17    (WHEN MIN. R.F.=1)  AT K=  18, I=   1, J=  91

 MAXIMUM STEPSIZE WHICH MEETS STABILITY CRITERION OF THE ADVECTION TERM
 (FOR PURE FINITE-DIFFERENCE OPTION, MIXELM=0) 
 =  9.806    (WHEN MIN. R.F.=1)  AT K=  16, I=   1, J=  90


 TOTAL NUMBER OF POINT SOURCES/SINKS PRESENT IN THE FLOW MODEL =    30

 MAXIMUM STEPSIZE WHICH MEETS STABILITY CRITERION OF THE SINK & SOURCE TERM
 =  13.97    (WHEN MIN. R.F.=1)  AT K=  17, I=   1, J=  91

 MAXIMUM STEPSIZE WHICH MEETS STABILITY CRITERION OF THE DISPERSION TERM
 =  5.156    (WHEN MIN. R.F.=1)  AT K=  16, I=   1, J=  89
     1 CALLS TO GCG PACKAGE FOR TRANSPORT TIME STEP 187 IN FLOW TIME STEP   1 STRESS PERIOD   1
     4 TOTAL ITERATIONS
0WARNING: NUMERICAL OSCILLATION ENCOUNTERED
 ONE OR MORE CELL CONCENTRATIONS LESS THAN CRHOREF
 SMALLEST DENSITY =  0.100E+04
 AT CELL (I,J,K) = (   1,  67,   8)

 
 SOLVING FOR HEAD 


     2 CALLS TO PCG ROUTINE FOR TIME STEP   1 IN STRESS PERIOD    1
     5 TOTAL ITERATIONS

 MAXIMUM HEAD CHANGE FOR EACH ITERATION (1 INDICATES THE FIRST INNER ITERATION):

    HEAD CHANGE    HEAD CHANGE    HEAD CHANGE    HEAD CHANGE    HEAD CHANGE 
   LAYER,ROW,COL  LAYER,ROW,COL  LAYER,ROW,COL  LAYER,ROW,COL  LAYER,ROW,COL
 ---------------------------------------------------------------------------
  1 -0.1656E-02  0 -0.1683E-02  0  0.1681E-02  0 -0.7776E-03  1 -0.5120E-03
   ( 23,  1, 71)  ( 10,  1, 12)  ( 10,  1, 12)  ( 11,  1, 60)  ( 11,  1, 69)

 MAXIMUM RESIDUAL FOR EACH ITERATION (1 INDICATES THE FIRST INNER ITERATION):

    RESIDUAL       RESIDUAL       RESIDUAL       RESIDUAL       RESIDUAL    
   LAYER,ROW,COL  LAYER,ROW,COL  LAYER,ROW,COL  LAYER,ROW,COL  LAYER,ROW,COL
 ---------------------------------------------------------------------------
  1 -0.1573E+05  0  -9315.      0   1383.      0   1390.      1   1101.    
   ( 22,  1, 56)  ( 22,  1, 56)  ( 22,  1, 88)  ( 22,  1, 88)  ( 22,  1, 88)


 FLOW MODEL IS TRANSIENT
 FLOW MODEL CONTAINS CONSTANT-HEAD CELLS


 MAXIMUM STEPSIZE DURING WHICH ANY PARTICLE CANNOT MOVE MORE THAN ONE CELL
 =  17.15    (WHEN MIN. R.F.=1)  AT K=  18, I=   1, J=  91

 MAXIMUM STEPSIZE WHICH MEETS STABILITY CRITERION OF THE ADVECTION TERM
 (FOR PURE FINITE-DIFFERENCE OPTION, MIXELM=0) 
 =  9.786    (WHEN MIN. R.F.=1)  AT K=  16, I=   1, J=  90


 TOTAL NUMBER OF POINT SOURCES/SINKS PRESENT IN THE FLOW MODEL =    30

 MAXIMUM STEPSIZE WHICH MEETS STABILITY CRITERION OF THE SINK & SOURCE TERM
 =  13.94    (WHEN MIN. R.F.=1)  AT K=  17, I=   1, J=  91

 MAXIMUM STEPSIZE WHICH MEETS STABILITY CRITERION OF THE DISPERSION TERM
 =  5.146    (WHEN MIN. R.F.=1)  AT K=  16, I=   1, J=  89
     1 CALLS TO GCG PACKAGE FOR TRANSPORT TIME STEP 188 IN FLOW TIME STEP   1 STRESS PERIOD   1
     4 TOTAL ITERATIONS
0WARNING: NUMERICAL OSCILLATION ENCOUNTERED
 ONE OR MORE CELL CONCENTRATIONS LESS THAN CRHOREF
 SMALLEST DENSITY =  0.100E+04
 AT CELL (I,J,K) = (   1,  67,   8)

 
 SOLVING FOR HEAD 


     2 CALLS TO PCG ROUTINE FOR TIME STEP   1 IN STRESS PERIOD    1
     5 TOTAL ITERATIONS

 MAXIMUM HEAD CHANGE FOR EACH ITERATION (1 INDICATES THE FIRST INNER ITERATION):

    HEAD CHANGE    HEAD CHANGE    HEAD CHANGE    HEAD CHANGE    HEAD CHANGE 
   LAYER,ROW,COL  LAYER,ROW,COL  LAYER,ROW,COL  LAYER,ROW,COL  LAYER,ROW,COL
 ---------------------------------------------------------------------------
  1 -0.1654E-02  0 -0.1668E-02  0  0.1656E-02  0 -0.7914E-03  1 -0.5107E-03
   ( 23,  1, 71)  ( 10,  1, 12)  ( 10,  1, 12)  ( 11,  1, 60)  ( 11,  1, 69)

 MAXIMUM RESIDUAL FOR EACH ITERATION (1 INDICATES THE FIRST INNER ITERATION):

    RESIDUAL       RESIDUAL       RESIDUAL       RESIDUAL       RESIDUAL    
   LAYER,ROW,COL  LAYER,ROW,COL  LAYER,ROW,COL  LAYER,ROW,COL  LAYER,ROW,COL
 ---------------------------------------------------------------------------
  1 -0.1553E+05  0  -9248.      0   1279.      0  -1255.      1  -963.4    
   ( 22,  1, 56)  ( 22,  1, 56)  ( 20,  1, 88)  ( 17,  1, 88)  ( 17,  1, 88)


 FLOW MODEL IS TRANSIENT
 FLOW MODEL CONTAINS CONSTANT-HEAD CELLS


 MAXIMUM STEPSIZE DURING WHICH ANY PARTICLE CANNOT MOVE MORE THAN ONE CELL
 =  17.10    (WHEN MIN. R.F.=1)  AT K=  18, I=   1, J=  91

 MAXIMUM STEPSIZE WHICH MEETS STABILITY CRITERION OF THE ADVECTION TERM
 (FOR PURE FINITE-DIFFERENCE OPTION, MIXELM=0) 
 =  9.773    (WHEN MIN. R.F.=1)  AT K=  16, I=   1, J=  90


 TOTAL NUMBER OF POINT SOURCES/SINKS PRESENT IN THE FLOW MODEL =    30

 MAXIMUM STEPSIZE WHICH MEETS STABILITY CRITERION OF THE SINK & SOURCE TERM
 =  13.92    (WHEN MIN. R.F.=1)  AT K=  17, I=   1, J=  91

 MAXIMUM STEPSIZE WHICH MEETS STABILITY CRITERION OF THE DISPERSION TERM
 =  5.141    (WHEN MIN. R.F.=1)  AT K=  16, I=   1, J=  89
     1 CALLS TO GCG PACKAGE FOR TRANSPORT TIME STEP 189 IN FLOW TIME STEP   1 STRESS PERIOD   1
     4 TOTAL ITERATIONS
0WARNING: NUMERICAL OSCILLATION ENCOUNTERED
 ONE OR MORE CELL CONCENTRATIONS LESS THAN CRHOREF
 SMALLEST DENSITY =  0.100E+04
 AT CELL (I,J,K) = (   1,  67,   8)

 
 SOLVING FOR HEAD 


     2 CALLS TO PCG ROUTINE FOR TIME STEP   1 IN STRESS PERIOD    1
     5 TOTAL ITERATIONS

 MAXIMUM HEAD CHANGE FOR EACH ITERATION (1 INDICATES THE FIRST INNER ITERATION):

    HEAD CHANGE    HEAD CHANGE    HEAD CHANGE    HEAD CHANGE    HEAD CHANGE 
   LAYER,ROW,COL  LAYER,ROW,COL  LAYER,ROW,COL  LAYER,ROW,COL  LAYER,ROW,COL
 ---------------------------------------------------------------------------
  1 -0.1607E-02  0 -0.1654E-02  0  0.1633E-02  0 -0.7551E-03  1 -0.4798E-03
   ( 23,  1, 71)  ( 10,  1, 12)  ( 10,  1, 12)  ( 11,  1, 60)  ( 11,  1, 69)

 MAXIMUM RESIDUAL FOR EACH ITERATION (1 INDICATES THE FIRST INNER ITERATION):

    RESIDUAL       RESIDUAL       RESIDUAL       RESIDUAL       RESIDUAL    
   LAYER,ROW,COL  LAYER,ROW,COL  LAYER,ROW,COL  LAYER,ROW,COL  LAYER,ROW,COL
 ---------------------------------------------------------------------------
  1 -0.1546E+05  0  -8879.      0  -1445.      0  -1406.      1  -1085.    
   ( 22,  1, 56)  ( 22,  1, 56)  ( 22,  1, 88)  ( 22,  1, 88)  ( 22,  1, 88)


 FLOW MODEL IS TRANSIENT
 FLOW MODEL CONTAINS CONSTANT-HEAD CELLS


 MAXIMUM STEPSIZE DURING WHICH ANY PARTICLE CANNOT MOVE MORE THAN ONE CELL
 =  17.07    (WHEN MIN. R.F.=1)  AT K=  18, I=   1, J=  91

 MAXIMUM STEPSIZE WHICH MEETS STABILITY CRITERION OF THE ADVECTION TERM
 (FOR PURE FINITE-DIFFERENCE OPTION, MIXELM=0) 
 =  9.758    (WHEN MIN. R.F.=1)  AT K=  16, I=   1, J=  90


 TOTAL NUMBER OF POINT SOURCES/SINKS PRESENT IN THE FLOW MODEL =    30

 MAXIMUM STEPSIZE WHICH MEETS STABILITY CRITERION OF THE SINK & SOURCE TERM
 =  13.89    (WHEN MIN. R.F.=1)  AT K=  17, I=   1, J=  91

 MAXIMUM STEPSIZE WHICH MEETS STABILITY CRITERION OF THE DISPERSION TERM
 =  5.134    (WHEN MIN. R.F.=1)  AT K=  16, I=   1, J=  89
     1 CALLS TO GCG PACKAGE FOR TRANSPORT TIME STEP 190 IN FLOW TIME STEP   1 STRESS PERIOD   1
     4 TOTAL ITERATIONS
  MAXIMUM CONCENTRATION CHANGES FOR EACH ITERATION:
  MAX. CHANGE LAYER,ROW,COL MAX. CHANGE LAYER,ROW,COL MAX. CHANGE LAYER,ROW,COL MAX. CHANGE LAYER,ROW,COL MAX. CHANGE LAYER,ROW,COL
 ------------------------------------------------------------------------------------------------------------------------------------
   0.3306     ( 16,  1, 90)  0.7066E-03 ( 17,  1, 89)  0.1805E-04 ( 16,  1, 89)  0.1310E-06 ( 17,  1, 88)



 >>>>>>>>>>>>>>>>>>>>>>>>>>>>>>>>>>>>>>>>>>>>>>>>>>>>>>>FOR COMPONENT NO. 01<<<<<<<<<<<<<<<<<<<<<<<<<<<<<<<<<<<<<<<<<<<<<<<<<<<<<<<


                                            -------------------------------------------
                                                      TRANSPORT STEP NO.  190
                                            -------------------------------------------

 TOTAL ELAPSED TIME SINCE BEGINNING OF SIMULATION =   1433.308    D   
 .....................................................................

                     CUMMULATIVE MASS BUDGETS AT END OF TRANSPORT STEP  190, TIME STEP    1, STRESS PERIOD    1
                     ------------------------------------------------------------------------------------------

                                                             IN                           OUT
                                                      ----------------             ----------------
                               CONSTANT CONCENTRATION:    0.000000                    0.000000    
                                        CONSTANT HEAD:   0.2185314E+08              -0.2513588E+08
                                             RECHARGE:    0.000000                    0.000000    
                                MASS STORAGE (SOLUTE):   0.2481947E+08              -0.2153673E+08
                            ---------------------------------------------------------------------------
                                              [TOTAL]:   0.4667377E+08 KG           -0.4667377E+08 KG  

                                                          NET (IN - OUT):    1.096019    
                                                   DISCREPANCY (PERCENT):   0.2348254E-05
0WARNING: NUMERICAL OSCILLATION ENCOUNTERED
 ONE OR MORE CELL CONCENTRATIONS LESS THAN CRHOREF
 SMALLEST DENSITY =  0.100E+04
 AT CELL (I,J,K) = (   1,  67,   8)

 
 SOLVING FOR HEAD 


     2 CALLS TO PCG ROUTINE FOR TIME STEP   1 IN STRESS PERIOD    1
     5 TOTAL ITERATIONS

 MAXIMUM HEAD CHANGE FOR EACH ITERATION (1 INDICATES THE FIRST INNER ITERATION):

    HEAD CHANGE    HEAD CHANGE    HEAD CHANGE    HEAD CHANGE    HEAD CHANGE 
   LAYER,ROW,COL  LAYER,ROW,COL  LAYER,ROW,COL  LAYER,ROW,COL  LAYER,ROW,COL
 ---------------------------------------------------------------------------
  1 -0.1610E-02  0 -0.1659E-02  0  0.1653E-02  0 -0.7264E-03  1 -0.4806E-03
   ( 23,  1, 71)  ( 10,  1, 12)  ( 10,  1, 12)  ( 11,  1, 60)  ( 11,  1, 69)

 MAXIMUM RESIDUAL FOR EACH ITERATION (1 INDICATES THE FIRST INNER ITERATION):

    RESIDUAL       RESIDUAL       RESIDUAL       RESIDUAL       RESIDUAL    
   LAYER,ROW,COL  LAYER,ROW,COL  LAYER,ROW,COL  LAYER,ROW,COL  LAYER,ROW,COL
 ---------------------------------------------------------------------------
  1 -0.1506E+05  0  -8548.      0   1269.      0   1209.      1   988.6    
   ( 22,  1, 56)  ( 22,  1, 56)  ( 19,  1, 89)  ( 17,  1, 88)  ( 17,  1, 88)


 FLOW MODEL IS TRANSIENT
 FLOW MODEL CONTAINS CONSTANT-HEAD CELLS


 MAXIMUM STEPSIZE DURING WHICH ANY PARTICLE CANNOT MOVE MORE THAN ONE CELL
 =  17.04    (WHEN MIN. R.F.=1)  AT K=  18, I=   1, J=  91

 MAXIMUM STEPSIZE WHICH MEETS STABILITY CRITERION OF THE ADVECTION TERM
 (FOR PURE FINITE-DIFFERENCE OPTION, MIXELM=0) 
 =  9.737    (WHEN MIN. R.F.=1)  AT K=  16, I=   1, J=  90


 TOTAL NUMBER OF POINT SOURCES/SINKS PRESENT IN THE FLOW MODEL =    30

 MAXIMUM STEPSIZE WHICH MEETS STABILITY CRITERION OF THE SINK & SOURCE TERM
 =  13.86    (WHEN MIN. R.F.=1)  AT K=  17, I=   1, J=  91

 MAXIMUM STEPSIZE WHICH MEETS STABILITY CRITERION OF THE DISPERSION TERM
 =  5.123    (WHEN MIN. R.F.=1)  AT K=  16, I=   1, J=  89
     1 CALLS TO GCG PACKAGE FOR TRANSPORT TIME STEP 191 IN FLOW TIME STEP   1 STRESS PERIOD   1
     4 TOTAL ITERATIONS
0WARNING: NUMERICAL OSCILLATION ENCOUNTERED
 ONE OR MORE CELL CONCENTRATIONS LESS THAN CRHOREF
 SMALLEST DENSITY =  0.100E+04
 AT CELL (I,J,K) = (   1,  67,   8)

 
 SOLVING FOR HEAD 


     2 CALLS TO PCG ROUTINE FOR TIME STEP   1 IN STRESS PERIOD    1
     5 TOTAL ITERATIONS

 MAXIMUM HEAD CHANGE FOR EACH ITERATION (1 INDICATES THE FIRST INNER ITERATION):

    HEAD CHANGE    HEAD CHANGE    HEAD CHANGE    HEAD CHANGE    HEAD CHANGE 
   LAYER,ROW,COL  LAYER,ROW,COL  LAYER,ROW,COL  LAYER,ROW,COL  LAYER,ROW,COL
 ---------------------------------------------------------------------------
  1 -0.1618E-02  0 -0.1640E-02  0  0.1637E-02  0 -0.7610E-03  1 -0.5018E-03
   ( 23,  1, 71)  ( 10,  1, 12)  ( 10,  1, 12)  ( 11,  1, 60)  ( 11,  1, 69)

 MAXIMUM RESIDUAL FOR EACH ITERATION (1 INDICATES THE FIRST INNER ITERATION):

    RESIDUAL       RESIDUAL       RESIDUAL       RESIDUAL       RESIDUAL    
   LAYER,ROW,COL  LAYER,ROW,COL  LAYER,ROW,COL  LAYER,ROW,COL  LAYER,ROW,COL
 ---------------------------------------------------------------------------
  1 -0.1498E+05  0  -8716.      0   1435.      0   1347.      1   1049.    
   ( 22,  1, 56)  ( 22,  1, 56)  ( 17,  1, 89)  ( 17,  1, 89)  ( 17,  1, 89)


 FLOW MODEL IS TRANSIENT
 FLOW MODEL CONTAINS CONSTANT-HEAD CELLS


 MAXIMUM STEPSIZE DURING WHICH ANY PARTICLE CANNOT MOVE MORE THAN ONE CELL
 =  17.01    (WHEN MIN. R.F.=1)  AT K=  18, I=   1, J=  91

 MAXIMUM STEPSIZE WHICH MEETS STABILITY CRITERION OF THE ADVECTION TERM
 (FOR PURE FINITE-DIFFERENCE OPTION, MIXELM=0) 
 =  9.722    (WHEN MIN. R.F.=1)  AT K=  16, I=   1, J=  90


 TOTAL NUMBER OF POINT SOURCES/SINKS PRESENT IN THE FLOW MODEL =    30

 MAXIMUM STEPSIZE WHICH MEETS STABILITY CRITERION OF THE SINK & SOURCE TERM
 =  13.84    (WHEN MIN. R.F.=1)  AT K=  17, I=   1, J=  91

 MAXIMUM STEPSIZE WHICH MEETS STABILITY CRITERION OF THE DISPERSION TERM
 =  5.116    (WHEN MIN. R.F.=1)  AT K=  16, I=   1, J=  89
     1 CALLS TO GCG PACKAGE FOR TRANSPORT TIME STEP 192 IN FLOW TIME STEP   1 STRESS PERIOD   1
     4 TOTAL ITERATIONS
0WARNING: NUMERICAL OSCILLATION ENCOUNTERED
 ONE OR MORE CELL CONCENTRATIONS LESS THAN CRHOREF
 SMALLEST DENSITY =  0.100E+04
 AT CELL (I,J,K) = (   1,  67,   8)

 
 SOLVING FOR HEAD 


     2 CALLS TO PCG ROUTINE FOR TIME STEP   1 IN STRESS PERIOD    1
     5 TOTAL ITERATIONS

 MAXIMUM HEAD CHANGE FOR EACH ITERATION (1 INDICATES THE FIRST INNER ITERATION):

    HEAD CHANGE    HEAD CHANGE    HEAD CHANGE    HEAD CHANGE    HEAD CHANGE 
   LAYER,ROW,COL  LAYER,ROW,COL  LAYER,ROW,COL  LAYER,ROW,COL  LAYER,ROW,COL
 ---------------------------------------------------------------------------
  1 -0.1594E-02  0 -0.1633E-02  0  0.1619E-02  0 -0.7681E-03  1 -0.4568E-03
   ( 23,  1, 71)  ( 10,  1, 12)  ( 10,  1, 12)  ( 11,  1, 60)  ( 11,  1, 69)

 MAXIMUM RESIDUAL FOR EACH ITERATION (1 INDICATES THE FIRST INNER ITERATION):

    RESIDUAL       RESIDUAL       RESIDUAL       RESIDUAL       RESIDUAL    
   LAYER,ROW,COL  LAYER,ROW,COL  LAYER,ROW,COL  LAYER,ROW,COL  LAYER,ROW,COL
 ---------------------------------------------------------------------------
  1 -0.1476E+05  0  -8518.      0   1190.      0   1123.      1   912.4    
   ( 16,  1, 89)  ( 16,  1, 89)  ( 20,  1, 88)  ( 22,  1, 89)  ( 22,  1, 89)


 FLOW MODEL IS TRANSIENT
 FLOW MODEL CONTAINS CONSTANT-HEAD CELLS


 MAXIMUM STEPSIZE DURING WHICH ANY PARTICLE CANNOT MOVE MORE THAN ONE CELL
 =  16.97    (WHEN MIN. R.F.=1)  AT K=  18, I=   1, J=  91

 MAXIMUM STEPSIZE WHICH MEETS STABILITY CRITERION OF THE ADVECTION TERM
 (FOR PURE FINITE-DIFFERENCE OPTION, MIXELM=0) 
 =  9.710    (WHEN MIN. R.F.=1)  AT K=  16, I=   1, J=  90


 TOTAL NUMBER OF POINT SOURCES/SINKS PRESENT IN THE FLOW MODEL =    30

 MAXIMUM STEPSIZE WHICH MEETS STABILITY CRITERION OF THE SINK & SOURCE TERM
 =  13.81    (WHEN MIN. R.F.=1)  AT K=  17, I=   1, J=  91

 MAXIMUM STEPSIZE WHICH MEETS STABILITY CRITERION OF THE DISPERSION TERM
 =  5.111    (WHEN MIN. R.F.=1)  AT K=  16, I=   1, J=  89
     1 CALLS TO GCG PACKAGE FOR TRANSPORT TIME STEP 193 IN FLOW TIME STEP   1 STRESS PERIOD   1
     4 TOTAL ITERATIONS
0WARNING: NUMERICAL OSCILLATION ENCOUNTERED
 ONE OR MORE CELL CONCENTRATIONS LESS THAN CRHOREF
 SMALLEST DENSITY =  0.100E+04
 AT CELL (I,J,K) = (   1,  67,   8)

 
 SOLVING FOR HEAD 


     2 CALLS TO PCG ROUTINE FOR TIME STEP   1 IN STRESS PERIOD    1
     5 TOTAL ITERATIONS

 MAXIMUM HEAD CHANGE FOR EACH ITERATION (1 INDICATES THE FIRST INNER ITERATION):

    HEAD CHANGE    HEAD CHANGE    HEAD CHANGE    HEAD CHANGE    HEAD CHANGE 
   LAYER,ROW,COL  LAYER,ROW,COL  LAYER,ROW,COL  LAYER,ROW,COL  LAYER,ROW,COL
 ---------------------------------------------------------------------------
  1 -0.1567E-02  0 -0.1625E-02  0  0.1609E-02  0 -0.6767E-03  1 -0.4543E-03
   ( 23,  1, 71)  ( 10,  1, 12)  ( 10,  1, 12)  ( 11,  1, 60)  ( 11,  1, 69)

 MAXIMUM RESIDUAL FOR EACH ITERATION (1 INDICATES THE FIRST INNER ITERATION):

    RESIDUAL       RESIDUAL       RESIDUAL       RESIDUAL       RESIDUAL    
   LAYER,ROW,COL  LAYER,ROW,COL  LAYER,ROW,COL  LAYER,ROW,COL  LAYER,ROW,COL
 ---------------------------------------------------------------------------
  1  0.1565E+05  0   8505.      0   1340.      0   1211.      1   937.6    
   ( 20,  1, 85)  ( 20,  1, 85)  ( 17,  1, 88)  ( 17,  1, 88)  ( 17,  1, 88)


 FLOW MODEL IS TRANSIENT
 FLOW MODEL CONTAINS CONSTANT-HEAD CELLS


 MAXIMUM STEPSIZE DURING WHICH ANY PARTICLE CANNOT MOVE MORE THAN ONE CELL
 =  16.94    (WHEN MIN. R.F.=1)  AT K=  18, I=   1, J=  91

 MAXIMUM STEPSIZE WHICH MEETS STABILITY CRITERION OF THE ADVECTION TERM
 (FOR PURE FINITE-DIFFERENCE OPTION, MIXELM=0) 
 =  9.692    (WHEN MIN. R.F.=1)  AT K=  16, I=   1, J=  90


 TOTAL NUMBER OF POINT SOURCES/SINKS PRESENT IN THE FLOW MODEL =    30

 MAXIMUM STEPSIZE WHICH MEETS STABILITY CRITERION OF THE SINK & SOURCE TERM
 =  13.78    (WHEN MIN. R.F.=1)  AT K=  17, I=   1, J=  91

 MAXIMUM STEPSIZE WHICH MEETS STABILITY CRITERION OF THE DISPERSION TERM
 =  5.102    (WHEN MIN. R.F.=1)  AT K=  16, I=   1, J=  89
     1 CALLS TO GCG PACKAGE FOR TRANSPORT TIME STEP 194 IN FLOW TIME STEP   1 STRESS PERIOD   1
     4 TOTAL ITERATIONS
0WARNING: NUMERICAL OSCILLATION ENCOUNTERED
 ONE OR MORE CELL CONCENTRATIONS LESS THAN CRHOREF
 SMALLEST DENSITY =  0.100E+04
 AT CELL (I,J,K) = (   1,  67,   8)

 
 SOLVING FOR HEAD 


     2 CALLS TO PCG ROUTINE FOR TIME STEP   1 IN STRESS PERIOD    1
     5 TOTAL ITERATIONS

 MAXIMUM HEAD CHANGE FOR EACH ITERATION (1 INDICATES THE FIRST INNER ITERATION):

    HEAD CHANGE    HEAD CHANGE    HEAD CHANGE    HEAD CHANGE    HEAD CHANGE 
   LAYER,ROW,COL  LAYER,ROW,COL  LAYER,ROW,COL  LAYER,ROW,COL  LAYER,ROW,COL
 ---------------------------------------------------------------------------
  1 -0.1574E-02  0 -0.1620E-02  0  0.1621E-02  0 -0.7430E-03  1 -0.4686E-03
   ( 23,  1, 71)  ( 10,  1, 12)  ( 10,  1, 12)  ( 11,  1, 60)  ( 11,  1, 69)

 MAXIMUM RESIDUAL FOR EACH ITERATION (1 INDICATES THE FIRST INNER ITERATION):

    RESIDUAL       RESIDUAL       RESIDUAL       RESIDUAL       RESIDUAL    
   LAYER,ROW,COL  LAYER,ROW,COL  LAYER,ROW,COL  LAYER,ROW,COL  LAYER,ROW,COL
 ---------------------------------------------------------------------------
  1  0.1450E+05  0   8007.      0  -1351.      0   1180.      1   945.8    
   ( 20,  1, 85)  ( 20,  1, 85)  ( 18,  1, 85)  ( 22,  1, 88)  ( 22,  1, 88)


 FLOW MODEL IS TRANSIENT
 FLOW MODEL CONTAINS CONSTANT-HEAD CELLS


 MAXIMUM STEPSIZE DURING WHICH ANY PARTICLE CANNOT MOVE MORE THAN ONE CELL
 =  16.92    (WHEN MIN. R.F.=1)  AT K=  18, I=   1, J=  91

 MAXIMUM STEPSIZE WHICH MEETS STABILITY CRITERION OF THE ADVECTION TERM
 (FOR PURE FINITE-DIFFERENCE OPTION, MIXELM=0) 
 =  9.673    (WHEN MIN. R.F.=1)  AT K=  16, I=   1, J=  90


 TOTAL NUMBER OF POINT SOURCES/SINKS PRESENT IN THE FLOW MODEL =    30

 MAXIMUM STEPSIZE WHICH MEETS STABILITY CRITERION OF THE SINK & SOURCE TERM
 =  13.76    (WHEN MIN. R.F.=1)  AT K=  17, I=   1, J=  91

 MAXIMUM STEPSIZE WHICH MEETS STABILITY CRITERION OF THE DISPERSION TERM
 =  5.092    (WHEN MIN. R.F.=1)  AT K=  16, I=   1, J=  89
     1 CALLS TO GCG PACKAGE FOR TRANSPORT TIME STEP 195 IN FLOW TIME STEP   1 STRESS PERIOD   1
     4 TOTAL ITERATIONS
  MAXIMUM CONCENTRATION CHANGES FOR EACH ITERATION:
  MAX. CHANGE LAYER,ROW,COL MAX. CHANGE LAYER,ROW,COL MAX. CHANGE LAYER,ROW,COL MAX. CHANGE LAYER,ROW,COL MAX. CHANGE LAYER,ROW,COL
 ------------------------------------------------------------------------------------------------------------------------------------
   0.3307     ( 16,  1, 90)  0.7083E-03 ( 17,  1, 89)  0.1816E-04 ( 16,  1, 89)  0.1328E-06 ( 17,  1, 88)
0WARNING: NUMERICAL OSCILLATION ENCOUNTERED
 ONE OR MORE CELL CONCENTRATIONS LESS THAN CRHOREF
 SMALLEST DENSITY =  0.100E+04
 AT CELL (I,J,K) = (   1,  67,   8)

 
 SOLVING FOR HEAD 


     2 CALLS TO PCG ROUTINE FOR TIME STEP   1 IN STRESS PERIOD    1
     5 TOTAL ITERATIONS

 MAXIMUM HEAD CHANGE FOR EACH ITERATION (1 INDICATES THE FIRST INNER ITERATION):

    HEAD CHANGE    HEAD CHANGE    HEAD CHANGE    HEAD CHANGE    HEAD CHANGE 
   LAYER,ROW,COL  LAYER,ROW,COL  LAYER,ROW,COL  LAYER,ROW,COL  LAYER,ROW,COL
 ---------------------------------------------------------------------------
  1 -0.1571E-02  0 -0.1602E-02  0  0.1596E-02  0 -0.7331E-03  1 -0.4573E-03
   ( 23,  1, 71)  ( 10,  1, 12)  ( 10,  1, 12)  ( 11,  1, 60)  ( 11,  1, 69)

 MAXIMUM RESIDUAL FOR EACH ITERATION (1 INDICATES THE FIRST INNER ITERATION):

    RESIDUAL       RESIDUAL       RESIDUAL       RESIDUAL       RESIDUAL    
   LAYER,ROW,COL  LAYER,ROW,COL  LAYER,ROW,COL  LAYER,ROW,COL  LAYER,ROW,COL
 ---------------------------------------------------------------------------
  1 -0.1418E+05  0  -7939.      0  -1115.      0  -1093.      1  -845.0    
   ( 22,  1, 56)  ( 22,  1, 56)  ( 17,  1, 88)  ( 17,  1, 88)  ( 17,  1, 88)


 FLOW MODEL IS TRANSIENT
 FLOW MODEL CONTAINS CONSTANT-HEAD CELLS


 MAXIMUM STEPSIZE DURING WHICH ANY PARTICLE CANNOT MOVE MORE THAN ONE CELL
 =  16.88    (WHEN MIN. R.F.=1)  AT K=  18, I=   1, J=  91

 MAXIMUM STEPSIZE WHICH MEETS STABILITY CRITERION OF THE ADVECTION TERM
 (FOR PURE FINITE-DIFFERENCE OPTION, MIXELM=0) 
 =  9.662    (WHEN MIN. R.F.=1)  AT K=  16, I=   1, J=  90


 TOTAL NUMBER OF POINT SOURCES/SINKS PRESENT IN THE FLOW MODEL =    30

 MAXIMUM STEPSIZE WHICH MEETS STABILITY CRITERION OF THE SINK & SOURCE TERM
 =  13.74    (WHEN MIN. R.F.=1)  AT K=  17, I=   1, J=  91

 MAXIMUM STEPSIZE WHICH MEETS STABILITY CRITERION OF THE DISPERSION TERM
 =  5.088    (WHEN MIN. R.F.=1)  AT K=  16, I=   1, J=  89
     1 CALLS TO GCG PACKAGE FOR TRANSPORT TIME STEP 196 IN FLOW TIME STEP   1 STRESS PERIOD   1
     4 TOTAL ITERATIONS
0WARNING: NUMERICAL OSCILLATION ENCOUNTERED
 ONE OR MORE CELL CONCENTRATIONS LESS THAN CRHOREF
 SMALLEST DENSITY =  0.100E+04
 AT CELL (I,J,K) = (   1,  67,   8)

 
 SOLVING FOR HEAD 


     2 CALLS TO PCG ROUTINE FOR TIME STEP   1 IN STRESS PERIOD    1
     5 TOTAL ITERATIONS

 MAXIMUM HEAD CHANGE FOR EACH ITERATION (1 INDICATES THE FIRST INNER ITERATION):

    HEAD CHANGE    HEAD CHANGE    HEAD CHANGE    HEAD CHANGE    HEAD CHANGE 
   LAYER,ROW,COL  LAYER,ROW,COL  LAYER,ROW,COL  LAYER,ROW,COL  LAYER,ROW,COL
 ---------------------------------------------------------------------------
  1 -0.1540E-02  0 -0.1596E-02  0  0.1578E-02  0 -0.6942E-03  1 -0.4299E-03
   ( 23,  1, 71)  ( 10,  1, 12)  ( 10,  1, 12)  ( 11,  1, 60)  ( 11,  1, 69)

 MAXIMUM RESIDUAL FOR EACH ITERATION (1 INDICATES THE FIRST INNER ITERATION):

    RESIDUAL       RESIDUAL       RESIDUAL       RESIDUAL       RESIDUAL    
   LAYER,ROW,COL  LAYER,ROW,COL  LAYER,ROW,COL  LAYER,ROW,COL  LAYER,ROW,COL
 ---------------------------------------------------------------------------
  1  0.1551E+05  0   8265.      0  -1196.      0  -1159.      1  -905.7    
   ( 20,  1, 85)  ( 20,  1, 85)  ( 22,  1, 88)  ( 22,  1, 88)  ( 22,  1, 88)


 FLOW MODEL IS TRANSIENT
 FLOW MODEL CONTAINS CONSTANT-HEAD CELLS


 MAXIMUM STEPSIZE DURING WHICH ANY PARTICLE CANNOT MOVE MORE THAN ONE CELL
 =  16.85    (WHEN MIN. R.F.=1)  AT K=  18, I=   1, J=  91

 MAXIMUM STEPSIZE WHICH MEETS STABILITY CRITERION OF THE ADVECTION TERM
 (FOR PURE FINITE-DIFFERENCE OPTION, MIXELM=0) 
 =  9.648    (WHEN MIN. R.F.=1)  AT K=  16, I=   1, J=  90


 TOTAL NUMBER OF POINT SOURCES/SINKS PRESENT IN THE FLOW MODEL =    30

 MAXIMUM STEPSIZE WHICH MEETS STABILITY CRITERION OF THE SINK & SOURCE TERM
 =  13.71    (WHEN MIN. R.F.=1)  AT K=  17, I=   1, J=  91

 MAXIMUM STEPSIZE WHICH MEETS STABILITY CRITERION OF THE DISPERSION TERM
 =  5.082    (WHEN MIN. R.F.=1)  AT K=  16, I=   1, J=  89
     1 CALLS TO GCG PACKAGE FOR TRANSPORT TIME STEP 197 IN FLOW TIME STEP   1 STRESS PERIOD   1
     4 TOTAL ITERATIONS
0WARNING: NUMERICAL OSCILLATION ENCOUNTERED
 ONE OR MORE CELL CONCENTRATIONS LESS THAN CRHOREF
 SMALLEST DENSITY =  0.100E+04
 AT CELL (I,J,K) = (   1,  67,   8)

 
 SOLVING FOR HEAD 


     2 CALLS TO PCG ROUTINE FOR TIME STEP   1 IN STRESS PERIOD    1
     5 TOTAL ITERATIONS

 MAXIMUM HEAD CHANGE FOR EACH ITERATION (1 INDICATES THE FIRST INNER ITERATION):

    HEAD CHANGE    HEAD CHANGE    HEAD CHANGE    HEAD CHANGE    HEAD CHANGE 
   LAYER,ROW,COL  LAYER,ROW,COL  LAYER,ROW,COL  LAYER,ROW,COL  LAYER,ROW,COL
 ---------------------------------------------------------------------------
  1 -0.1533E-02  0 -0.1594E-02  0  0.1590E-02  0 -0.6837E-03  1 -0.4400E-03
   ( 23,  1, 71)  ( 10,  1, 12)  ( 10,  1, 12)  ( 11,  1, 60)  ( 11,  1, 69)

 MAXIMUM RESIDUAL FOR EACH ITERATION (1 INDICATES THE FIRST INNER ITERATION):

    RESIDUAL       RESIDUAL       RESIDUAL       RESIDUAL       RESIDUAL    
   LAYER,ROW,COL  LAYER,ROW,COL  LAYER,ROW,COL  LAYER,ROW,COL  LAYER,ROW,COL
 ---------------------------------------------------------------------------
  1  0.1553E+05  0   8035.      0  -1243.      0   1084.      1   873.6    
   ( 20,  1, 85)  ( 20,  1, 85)  ( 18,  1, 85)  ( 22,  1, 85)  ( 22,  1, 85)


 FLOW MODEL IS TRANSIENT
 FLOW MODEL CONTAINS CONSTANT-HEAD CELLS


 MAXIMUM STEPSIZE DURING WHICH ANY PARTICLE CANNOT MOVE MORE THAN ONE CELL
 =  16.83    (WHEN MIN. R.F.=1)  AT K=  18, I=   1, J=  91

 MAXIMUM STEPSIZE WHICH MEETS STABILITY CRITERION OF THE ADVECTION TERM
 (FOR PURE FINITE-DIFFERENCE OPTION, MIXELM=0) 
 =  9.630    (WHEN MIN. R.F.=1)  AT K=  16, I=   1, J=  90


 TOTAL NUMBER OF POINT SOURCES/SINKS PRESENT IN THE FLOW MODEL =    30

 MAXIMUM STEPSIZE WHICH MEETS STABILITY CRITERION OF THE SINK & SOURCE TERM
 =  13.69    (WHEN MIN. R.F.=1)  AT K=  17, I=   1, J=  91

 MAXIMUM STEPSIZE WHICH MEETS STABILITY CRITERION OF THE DISPERSION TERM
 =  5.071    (WHEN MIN. R.F.=1)  AT K=  16, I=   1, J=  89
     1 CALLS TO GCG PACKAGE FOR TRANSPORT TIME STEP 198 IN FLOW TIME STEP   1 STRESS PERIOD   1
     4 TOTAL ITERATIONS
0WARNING: NUMERICAL OSCILLATION ENCOUNTERED
 ONE OR MORE CELL CONCENTRATIONS LESS THAN CRHOREF
 SMALLEST DENSITY =  0.100E+04
 AT CELL (I,J,K) = (   1,  67,   8)

 
 SOLVING FOR HEAD 


     2 CALLS TO PCG ROUTINE FOR TIME STEP   1 IN STRESS PERIOD    1
     5 TOTAL ITERATIONS

 MAXIMUM HEAD CHANGE FOR EACH ITERATION (1 INDICATES THE FIRST INNER ITERATION):

    HEAD CHANGE    HEAD CHANGE    HEAD CHANGE    HEAD CHANGE    HEAD CHANGE 
   LAYER,ROW,COL  LAYER,ROW,COL  LAYER,ROW,COL  LAYER,ROW,COL  LAYER,ROW,COL
 ---------------------------------------------------------------------------
  1 -0.1535E-02  0 -0.1574E-02  0  0.1575E-02  0 -0.7190E-03  1 -0.4524E-03
   ( 23,  1, 71)  ( 10,  1, 12)  ( 10,  1, 12)  ( 11,  1, 60)  ( 11,  1, 69)

 MAXIMUM RESIDUAL FOR EACH ITERATION (1 INDICATES THE FIRST INNER ITERATION):

    RESIDUAL       RESIDUAL       RESIDUAL       RESIDUAL       RESIDUAL    
   LAYER,ROW,COL  LAYER,ROW,COL  LAYER,ROW,COL  LAYER,ROW,COL  LAYER,ROW,COL
 ---------------------------------------------------------------------------
  1  0.1447E+05  0   7850.      0   1253.      0   1166.      1   913.7    
   ( 20,  1, 85)  ( 20,  1, 85)  ( 17,  1, 89)  ( 17,  1, 89)  ( 17,  1, 89)


 FLOW MODEL IS TRANSIENT
 FLOW MODEL CONTAINS CONSTANT-HEAD CELLS


 MAXIMUM STEPSIZE DURING WHICH ANY PARTICLE CANNOT MOVE MORE THAN ONE CELL
 =  16.80    (WHEN MIN. R.F.=1)  AT K=  18, I=   1, J=  91

 MAXIMUM STEPSIZE WHICH MEETS STABILITY CRITERION OF THE ADVECTION TERM
 (FOR PURE FINITE-DIFFERENCE OPTION, MIXELM=0) 
 =  9.616    (WHEN MIN. R.F.=1)  AT K=  16, I=   1, J=  90


 TOTAL NUMBER OF POINT SOURCES/SINKS PRESENT IN THE FLOW MODEL =    30

 MAXIMUM STEPSIZE WHICH MEETS STABILITY CRITERION OF THE SINK & SOURCE TERM
 =  13.67    (WHEN MIN. R.F.=1)  AT K=  17, I=   1, J=  91

 MAXIMUM STEPSIZE WHICH MEETS STABILITY CRITERION OF THE DISPERSION TERM
 =  5.065    (WHEN MIN. R.F.=1)  AT K=  16, I=   1, J=  89
     1 CALLS TO GCG PACKAGE FOR TRANSPORT TIME STEP 199 IN FLOW TIME STEP   1 STRESS PERIOD   1
     4 TOTAL ITERATIONS
0WARNING: NUMERICAL OSCILLATION ENCOUNTERED
 ONE OR MORE CELL CONCENTRATIONS LESS THAN CRHOREF
 SMALLEST DENSITY =  0.100E+04
 AT CELL (I,J,K) = (   1,  67,   8)

 
 SOLVING FOR HEAD 


     2 CALLS TO PCG ROUTINE FOR TIME STEP   1 IN STRESS PERIOD    1
     5 TOTAL ITERATIONS

 MAXIMUM HEAD CHANGE FOR EACH ITERATION (1 INDICATES THE FIRST INNER ITERATION):

    HEAD CHANGE    HEAD CHANGE    HEAD CHANGE    HEAD CHANGE    HEAD CHANGE 
   LAYER,ROW,COL  LAYER,ROW,COL  LAYER,ROW,COL  LAYER,ROW,COL  LAYER,ROW,COL
 ---------------------------------------------------------------------------
  1 -0.1522E-02  0 -0.1569E-02  0  0.1560E-02  0 -0.7049E-03  1 -0.4101E-03
   ( 23,  1, 71)  ( 10,  1, 12)  ( 10,  1, 12)  ( 11,  1, 60)  ( 11,  1, 69)

 MAXIMUM RESIDUAL FOR EACH ITERATION (1 INDICATES THE FIRST INNER ITERATION):

    RESIDUAL       RESIDUAL       RESIDUAL       RESIDUAL       RESIDUAL    
   LAYER,ROW,COL  LAYER,ROW,COL  LAYER,ROW,COL  LAYER,ROW,COL  LAYER,ROW,COL
 ---------------------------------------------------------------------------
  1  0.1483E+05  0   7780.      0   1025.      0   953.7      1   784.4    
   ( 20,  1, 85)  ( 20,  1, 85)  ( 20,  1, 88)  ( 22,  1, 89)  ( 22,  1, 89)


 FLOW MODEL IS TRANSIENT
 FLOW MODEL CONTAINS CONSTANT-HEAD CELLS


 MAXIMUM STEPSIZE DURING WHICH ANY PARTICLE CANNOT MOVE MORE THAN ONE CELL
 =  16.77    (WHEN MIN. R.F.=1)  AT K=  18, I=   1, J=  91

 MAXIMUM STEPSIZE WHICH MEETS STABILITY CRITERION OF THE ADVECTION TERM
 (FOR PURE FINITE-DIFFERENCE OPTION, MIXELM=0) 
 =  9.605    (WHEN MIN. R.F.=1)  AT K=  16, I=   1, J=  90


 TOTAL NUMBER OF POINT SOURCES/SINKS PRESENT IN THE FLOW MODEL =    30

 MAXIMUM STEPSIZE WHICH MEETS STABILITY CRITERION OF THE SINK & SOURCE TERM
 =  13.64    (WHEN MIN. R.F.=1)  AT K=  17, I=   1, J=  91

 MAXIMUM STEPSIZE WHICH MEETS STABILITY CRITERION OF THE DISPERSION TERM
 =  5.061    (WHEN MIN. R.F.=1)  AT K=  16, I=   1, J=  89
     1 CALLS TO GCG PACKAGE FOR TRANSPORT TIME STEP 200 IN FLOW TIME STEP   1 STRESS PERIOD   1
     4 TOTAL ITERATIONS
  MAXIMUM CONCENTRATION CHANGES FOR EACH ITERATION:
  MAX. CHANGE LAYER,ROW,COL MAX. CHANGE LAYER,ROW,COL MAX. CHANGE LAYER,ROW,COL MAX. CHANGE LAYER,ROW,COL MAX. CHANGE LAYER,ROW,COL
 ------------------------------------------------------------------------------------------------------------------------------------
   0.3305     ( 16,  1, 90)  0.7029E-03 ( 17,  1, 89)  0.1806E-04 ( 16,  1, 89)  0.1300E-06 ( 17,  1, 88)



 >>>>>>>>>>>>>>>>>>>>>>>>>>>>>>>>>>>>>>>>>>>>>>>>>>>>>>>FOR COMPONENT NO. 01<<<<<<<<<<<<<<<<<<<<<<<<<<<<<<<<<<<<<<<<<<<<<<<<<<<<<<<


                                            -------------------------------------------
                                                      TRANSPORT STEP NO.  200
                                            -------------------------------------------

 TOTAL ELAPSED TIME SINCE BEGINNING OF SIMULATION =   1481.731    D   
 .....................................................................

                     CUMMULATIVE MASS BUDGETS AT END OF TRANSPORT STEP  200, TIME STEP    1, STRESS PERIOD    1
                     ------------------------------------------------------------------------------------------

                                                             IN                           OUT
                                                      ----------------             ----------------
                               CONSTANT CONCENTRATION:    0.000000                    0.000000    
                                        CONSTANT HEAD:   0.2361222E+08              -0.2687784E+08
                                             RECHARGE:    0.000000                    0.000000    
                                MASS STORAGE (SOLUTE):   0.2496707E+08              -0.2170145E+08
                            ---------------------------------------------------------------------------
                                              [TOTAL]:   0.4858044E+08 KG           -0.4858044E+08 KG  

                                                          NET (IN - OUT):    1.136698    
                                                   DISCREPANCY (PERCENT):   0.2339826E-05
0WARNING: NUMERICAL OSCILLATION ENCOUNTERED
 ONE OR MORE CELL CONCENTRATIONS LESS THAN CRHOREF
 SMALLEST DENSITY =  0.100E+04
 AT CELL (I,J,K) = (   1,  67,   8)

 
 SOLVING FOR HEAD 


     2 CALLS TO PCG ROUTINE FOR TIME STEP   1 IN STRESS PERIOD    1
     5 TOTAL ITERATIONS

 MAXIMUM HEAD CHANGE FOR EACH ITERATION (1 INDICATES THE FIRST INNER ITERATION):

    HEAD CHANGE    HEAD CHANGE    HEAD CHANGE    HEAD CHANGE    HEAD CHANGE 
   LAYER,ROW,COL  LAYER,ROW,COL  LAYER,ROW,COL  LAYER,ROW,COL  LAYER,ROW,COL
 ---------------------------------------------------------------------------
  1 -0.1497E-02  0 -0.1563E-02  0  0.1550E-02  0 -0.6357E-03  1 -0.4140E-03
   ( 23,  1, 71)  ( 10,  1, 12)  ( 10,  1, 12)  ( 11,  1, 60)  ( 11,  1, 69)

 MAXIMUM RESIDUAL FOR EACH ITERATION (1 INDICATES THE FIRST INNER ITERATION):

    RESIDUAL       RESIDUAL       RESIDUAL       RESIDUAL       RESIDUAL    
   LAYER,ROW,COL  LAYER,ROW,COL  LAYER,ROW,COL  LAYER,ROW,COL  LAYER,ROW,COL
 ---------------------------------------------------------------------------
  1  0.1579E+05  0   7922.      0   1183.      0   1051.      1   811.1    
   ( 20,  1, 85)  ( 20,  1, 85)  ( 19,  1, 86)  ( 19,  1, 86)  ( 19,  1, 86)


 FLOW MODEL IS TRANSIENT
 FLOW MODEL CONTAINS CONSTANT-HEAD CELLS


 MAXIMUM STEPSIZE DURING WHICH ANY PARTICLE CANNOT MOVE MORE THAN ONE CELL
 =  16.74    (WHEN MIN. R.F.=1)  AT K=  18, I=   1, J=  91

 MAXIMUM STEPSIZE WHICH MEETS STABILITY CRITERION OF THE ADVECTION TERM
 (FOR PURE FINITE-DIFFERENCE OPTION, MIXELM=0) 
 =  9.589    (WHEN MIN. R.F.=1)  AT K=  16, I=   1, J=  90


 TOTAL NUMBER OF POINT SOURCES/SINKS PRESENT IN THE FLOW MODEL =    30

 MAXIMUM STEPSIZE WHICH MEETS STABILITY CRITERION OF THE SINK & SOURCE TERM
 =  13.62    (WHEN MIN. R.F.=1)  AT K=  17, I=   1, J=  91

 MAXIMUM STEPSIZE WHICH MEETS STABILITY CRITERION OF THE DISPERSION TERM
 =  5.053    (WHEN MIN. R.F.=1)  AT K=  16, I=   1, J=  89
     1 CALLS TO GCG PACKAGE FOR TRANSPORT TIME STEP 201 IN FLOW TIME STEP   1 STRESS PERIOD   1
     4 TOTAL ITERATIONS
0WARNING: NUMERICAL OSCILLATION ENCOUNTERED
 ONE OR MORE CELL CONCENTRATIONS LESS THAN CRHOREF
 SMALLEST DENSITY =  0.100E+04
 AT CELL (I,J,K) = (   1,  67,   8)

 
 SOLVING FOR HEAD 


     2 CALLS TO PCG ROUTINE FOR TIME STEP   1 IN STRESS PERIOD    1
     5 TOTAL ITERATIONS

 MAXIMUM HEAD CHANGE FOR EACH ITERATION (1 INDICATES THE FIRST INNER ITERATION):

    HEAD CHANGE    HEAD CHANGE    HEAD CHANGE    HEAD CHANGE    HEAD CHANGE 
   LAYER,ROW,COL  LAYER,ROW,COL  LAYER,ROW,COL  LAYER,ROW,COL  LAYER,ROW,COL
 ---------------------------------------------------------------------------
  1 -0.1495E-02  0 -0.1550E-02  0  0.1554E-02  0 -0.7011E-03  1 -0.4250E-03
   ( 23,  1, 71)  ( 10,  1, 12)  ( 10,  1, 12)  ( 11,  1, 60)  ( 11,  1, 69)

 MAXIMUM RESIDUAL FOR EACH ITERATION (1 INDICATES THE FIRST INNER ITERATION):

    RESIDUAL       RESIDUAL       RESIDUAL       RESIDUAL       RESIDUAL    
   LAYER,ROW,COL  LAYER,ROW,COL  LAYER,ROW,COL  LAYER,ROW,COL  LAYER,ROW,COL
 ---------------------------------------------------------------------------
  1  0.1519E+05  0   7638.      0  -1268.      0   1094.      1   876.4    
   ( 20,  1, 85)  ( 20,  1, 85)  ( 18,  1, 85)  ( 22,  1, 85)  ( 22,  1, 85)


 FLOW MODEL IS TRANSIENT
 FLOW MODEL CONTAINS CONSTANT-HEAD CELLS


 MAXIMUM STEPSIZE DURING WHICH ANY PARTICLE CANNOT MOVE MORE THAN ONE CELL
 =  16.72    (WHEN MIN. R.F.=1)  AT K=  18, I=   1, J=  91

 MAXIMUM STEPSIZE WHICH MEETS STABILITY CRITERION OF THE ADVECTION TERM
 (FOR PURE FINITE-DIFFERENCE OPTION, MIXELM=0) 
 =  9.573    (WHEN MIN. R.F.=1)  AT K=  16, I=   1, J=  90


 TOTAL NUMBER OF POINT SOURCES/SINKS PRESENT IN THE FLOW MODEL =    30

 MAXIMUM STEPSIZE WHICH MEETS STABILITY CRITERION OF THE SINK & SOURCE TERM
 =  13.60    (WHEN MIN. R.F.=1)  AT K=  17, I=   1, J=  91

 MAXIMUM STEPSIZE WHICH MEETS STABILITY CRITERION OF THE DISPERSION TERM
 =  5.044    (WHEN MIN. R.F.=1)  AT K=  16, I=   1, J=  89
     1 CALLS TO GCG PACKAGE FOR TRANSPORT TIME STEP 202 IN FLOW TIME STEP   1 STRESS PERIOD   1
     4 TOTAL ITERATIONS
0WARNING: NUMERICAL OSCILLATION ENCOUNTERED
 ONE OR MORE CELL CONCENTRATIONS LESS THAN CRHOREF
 SMALLEST DENSITY =  0.100E+04
 AT CELL (I,J,K) = (   1,  67,   8)

 
 SOLVING FOR HEAD 


     2 CALLS TO PCG ROUTINE FOR TIME STEP   1 IN STRESS PERIOD    1
     5 TOTAL ITERATIONS

 MAXIMUM HEAD CHANGE FOR EACH ITERATION (1 INDICATES THE FIRST INNER ITERATION):

    HEAD CHANGE    HEAD CHANGE    HEAD CHANGE    HEAD CHANGE    HEAD CHANGE 
   LAYER,ROW,COL  LAYER,ROW,COL  LAYER,ROW,COL  LAYER,ROW,COL  LAYER,ROW,COL
 ---------------------------------------------------------------------------
  1 -0.1494E-02  0 -0.1537E-02  0  0.1534E-02  0 -0.6805E-03  1 -0.4103E-03
   ( 23,  1, 71)  ( 10,  1, 12)  ( 10,  1, 12)  ( 11,  1, 60)  ( 11,  1, 69)

 MAXIMUM RESIDUAL FOR EACH ITERATION (1 INDICATES THE FIRST INNER ITERATION):

    RESIDUAL       RESIDUAL       RESIDUAL       RESIDUAL       RESIDUAL    
   LAYER,ROW,COL  LAYER,ROW,COL  LAYER,ROW,COL  LAYER,ROW,COL  LAYER,ROW,COL
 ---------------------------------------------------------------------------
  1  0.1446E+05  0   7476.      0  -971.2      0  -935.5      1  -729.6    
   ( 20,  1, 85)  ( 20,  1, 85)  ( 17,  1, 88)  ( 17,  1, 88)  ( 17,  1, 88)


 FLOW MODEL IS TRANSIENT
 FLOW MODEL CONTAINS CONSTANT-HEAD CELLS


 MAXIMUM STEPSIZE DURING WHICH ANY PARTICLE CANNOT MOVE MORE THAN ONE CELL
 =  16.69    (WHEN MIN. R.F.=1)  AT K=  18, I=   1, J=  91

 MAXIMUM STEPSIZE WHICH MEETS STABILITY CRITERION OF THE ADVECTION TERM
 (FOR PURE FINITE-DIFFERENCE OPTION, MIXELM=0) 
 =  9.562    (WHEN MIN. R.F.=1)  AT K=  16, I=   1, J=  90


 TOTAL NUMBER OF POINT SOURCES/SINKS PRESENT IN THE FLOW MODEL =    30

 MAXIMUM STEPSIZE WHICH MEETS STABILITY CRITERION OF THE SINK & SOURCE TERM
 =  13.58    (WHEN MIN. R.F.=1)  AT K=  17, I=   1, J=  91

 MAXIMUM STEPSIZE WHICH MEETS STABILITY CRITERION OF THE DISPERSION TERM
 =  5.040    (WHEN MIN. R.F.=1)  AT K=  16, I=   1, J=  89
     1 CALLS TO GCG PACKAGE FOR TRANSPORT TIME STEP 203 IN FLOW TIME STEP   1 STRESS PERIOD   1
     4 TOTAL ITERATIONS
0WARNING: NUMERICAL OSCILLATION ENCOUNTERED
 ONE OR MORE CELL CONCENTRATIONS LESS THAN CRHOREF
 SMALLEST DENSITY =  0.100E+04
 AT CELL (I,J,K) = (   1,  67,   8)

 
 SOLVING FOR HEAD 


     2 CALLS TO PCG ROUTINE FOR TIME STEP   1 IN STRESS PERIOD    1
     5 TOTAL ITERATIONS

 MAXIMUM HEAD CHANGE FOR EACH ITERATION (1 INDICATES THE FIRST INNER ITERATION):

    HEAD CHANGE    HEAD CHANGE    HEAD CHANGE    HEAD CHANGE    HEAD CHANGE 
   LAYER,ROW,COL  LAYER,ROW,COL  LAYER,ROW,COL  LAYER,ROW,COL  LAYER,ROW,COL
 ---------------------------------------------------------------------------
  1 -0.1471E-02  0 -0.1532E-02  0  0.1519E-02  0 -0.6451E-03  1 -0.3890E-03
   ( 23,  1, 71)  ( 10,  1, 12)  ( 10,  1, 12)  ( 11,  1, 60)  ( 11,  1, 69)

 MAXIMUM RESIDUAL FOR EACH ITERATION (1 INDICATES THE FIRST INNER ITERATION):

    RESIDUAL       RESIDUAL       RESIDUAL       RESIDUAL       RESIDUAL    
   LAYER,ROW,COL  LAYER,ROW,COL  LAYER,ROW,COL  LAYER,ROW,COL  LAYER,ROW,COL
 ---------------------------------------------------------------------------
  1  0.1531E+05  0   7512.      0   1004.      0  -956.8      1  -754.6    
   ( 20,  1, 85)  ( 20,  1, 85)  ( 21,  1, 84)  ( 22,  1, 88)  ( 22,  1, 88)


 FLOW MODEL IS TRANSIENT
 FLOW MODEL CONTAINS CONSTANT-HEAD CELLS


 MAXIMUM STEPSIZE DURING WHICH ANY PARTICLE CANNOT MOVE MORE THAN ONE CELL
 =  16.66    (WHEN MIN. R.F.=1)  AT K=  18, I=   1, J=  91

 MAXIMUM STEPSIZE WHICH MEETS STABILITY CRITERION OF THE ADVECTION TERM
 (FOR PURE FINITE-DIFFERENCE OPTION, MIXELM=0) 
 =  9.550    (WHEN MIN. R.F.=1)  AT K=  16, I=   1, J=  90


 TOTAL NUMBER OF POINT SOURCES/SINKS PRESENT IN THE FLOW MODEL =    30

 MAXIMUM STEPSIZE WHICH MEETS STABILITY CRITERION OF THE SINK & SOURCE TERM
 =  13.55    (WHEN MIN. R.F.=1)  AT K=  17, I=   1, J=  91

 MAXIMUM STEPSIZE WHICH MEETS STABILITY CRITERION OF THE DISPERSION TERM
 =  5.034    (WHEN MIN. R.F.=1)  AT K=  16, I=   1, J=  89
     1 CALLS TO GCG PACKAGE FOR TRANSPORT TIME STEP 204 IN FLOW TIME STEP   1 STRESS PERIOD   1
     4 TOTAL ITERATIONS
0WARNING: NUMERICAL OSCILLATION ENCOUNTERED
 ONE OR MORE CELL CONCENTRATIONS LESS THAN CRHOREF
 SMALLEST DENSITY =  0.100E+04
 AT CELL (I,J,K) = (   1,  67,   8)

 
 SOLVING FOR HEAD 


     2 CALLS TO PCG ROUTINE FOR TIME STEP   1 IN STRESS PERIOD    1
     5 TOTAL ITERATIONS

 MAXIMUM HEAD CHANGE FOR EACH ITERATION (1 INDICATES THE FIRST INNER ITERATION):

    HEAD CHANGE    HEAD CHANGE    HEAD CHANGE    HEAD CHANGE    HEAD CHANGE 
   LAYER,ROW,COL  LAYER,ROW,COL  LAYER,ROW,COL  LAYER,ROW,COL  LAYER,ROW,COL
 ---------------------------------------------------------------------------
  1 -0.1456E-02  0 -0.1522E-02  0  0.1520E-02  0 -0.6444E-03  1 -0.4020E-03
   ( 23,  1, 71)  ( 10,  1, 12)  ( 10,  1, 12)  ( 11,  1, 60)  ( 11,  1, 69)

 MAXIMUM RESIDUAL FOR EACH ITERATION (1 INDICATES THE FIRST INNER ITERATION):

    RESIDUAL       RESIDUAL       RESIDUAL       RESIDUAL       RESIDUAL    
   LAYER,ROW,COL  LAYER,ROW,COL  LAYER,ROW,COL  LAYER,ROW,COL  LAYER,ROW,COL
 ---------------------------------------------------------------------------
  1  0.1558E+05  0   7357.      0  -1150.      0   1044.      1   855.6    
   ( 20,  1, 85)  ( 20,  1, 85)  ( 18,  1, 85)  ( 22,  1, 85)  ( 22,  1, 85)


 FLOW MODEL IS TRANSIENT
 FLOW MODEL CONTAINS CONSTANT-HEAD CELLS


 MAXIMUM STEPSIZE DURING WHICH ANY PARTICLE CANNOT MOVE MORE THAN ONE CELL
 =  16.64    (WHEN MIN. R.F.=1)  AT K=  18, I=   1, J=  91

 MAXIMUM STEPSIZE WHICH MEETS STABILITY CRITERION OF THE ADVECTION TERM
 (FOR PURE FINITE-DIFFERENCE OPTION, MIXELM=0) 
 =  9.533    (WHEN MIN. R.F.=1)  AT K=  16, I=   1, J=  90


 TOTAL NUMBER OF POINT SOURCES/SINKS PRESENT IN THE FLOW MODEL =    30

 MAXIMUM STEPSIZE WHICH MEETS STABILITY CRITERION OF THE SINK & SOURCE TERM
 =  13.53    (WHEN MIN. R.F.=1)  AT K=  17, I=   1, J=  91

 MAXIMUM STEPSIZE WHICH MEETS STABILITY CRITERION OF THE DISPERSION TERM
 =  5.025    (WHEN MIN. R.F.=1)  AT K=  16, I=   1, J=  89
     1 CALLS TO GCG PACKAGE FOR TRANSPORT TIME STEP 205 IN FLOW TIME STEP   1 STRESS PERIOD   1
     4 TOTAL ITERATIONS
  MAXIMUM CONCENTRATION CHANGES FOR EACH ITERATION:
  MAX. CHANGE LAYER,ROW,COL MAX. CHANGE LAYER,ROW,COL MAX. CHANGE LAYER,ROW,COL MAX. CHANGE LAYER,ROW,COL MAX. CHANGE LAYER,ROW,COL
 ------------------------------------------------------------------------------------------------------------------------------------
   0.3305     ( 16,  1, 90)  0.7056E-03 ( 17,  1, 89)  0.1817E-04 ( 16,  1, 89)  0.1322E-06 ( 17,  1, 88)
0WARNING: NUMERICAL OSCILLATION ENCOUNTERED
 ONE OR MORE CELL CONCENTRATIONS LESS THAN CRHOREF
 SMALLEST DENSITY =  0.100E+04
 AT CELL (I,J,K) = (   1,  67,   8)

 
 SOLVING FOR HEAD 


     2 CALLS TO PCG ROUTINE FOR TIME STEP   1 IN STRESS PERIOD    1
     5 TOTAL ITERATIONS

 MAXIMUM HEAD CHANGE FOR EACH ITERATION (1 INDICATES THE FIRST INNER ITERATION):

    HEAD CHANGE    HEAD CHANGE    HEAD CHANGE    HEAD CHANGE    HEAD CHANGE 
   LAYER,ROW,COL  LAYER,ROW,COL  LAYER,ROW,COL  LAYER,ROW,COL  LAYER,ROW,COL
 ---------------------------------------------------------------------------
  1 -0.1454E-02  0 -0.1503E-02  0  0.1508E-02  0 -0.6748E-03  1 -0.4074E-03
   ( 23,  1, 71)  ( 10,  1, 12)  ( 10,  1, 12)  ( 11,  1, 60)  ( 11,  1, 69)

 MAXIMUM RESIDUAL FOR EACH ITERATION (1 INDICATES THE FIRST INNER ITERATION):

    RESIDUAL       RESIDUAL       RESIDUAL       RESIDUAL       RESIDUAL    
   LAYER,ROW,COL  LAYER,ROW,COL  LAYER,ROW,COL  LAYER,ROW,COL  LAYER,ROW,COL
 ---------------------------------------------------------------------------
  1  0.1477E+05  0   7256.      0  -1116.      0   1003.      1   792.1    
   ( 20,  1, 85)  ( 20,  1, 85)  ( 18,  1, 85)  ( 17,  1, 89)  ( 17,  1, 89)


 FLOW MODEL IS TRANSIENT
 FLOW MODEL CONTAINS CONSTANT-HEAD CELLS


 MAXIMUM STEPSIZE DURING WHICH ANY PARTICLE CANNOT MOVE MORE THAN ONE CELL
 =  16.61    (WHEN MIN. R.F.=1)  AT K=  18, I=   1, J=  91

 MAXIMUM STEPSIZE WHICH MEETS STABILITY CRITERION OF THE ADVECTION TERM
 (FOR PURE FINITE-DIFFERENCE OPTION, MIXELM=0) 
 =  9.521    (WHEN MIN. R.F.=1)  AT K=  16, I=   1, J=  90


 TOTAL NUMBER OF POINT SOURCES/SINKS PRESENT IN THE FLOW MODEL =    30

 MAXIMUM STEPSIZE WHICH MEETS STABILITY CRITERION OF THE SINK & SOURCE TERM
 =  13.51    (WHEN MIN. R.F.=1)  AT K=  17, I=   1, J=  91

 MAXIMUM STEPSIZE WHICH MEETS STABILITY CRITERION OF THE DISPERSION TERM
 =  5.019    (WHEN MIN. R.F.=1)  AT K=  16, I=   1, J=  89
     1 CALLS TO GCG PACKAGE FOR TRANSPORT TIME STEP 206 IN FLOW TIME STEP   1 STRESS PERIOD   1
     4 TOTAL ITERATIONS
0WARNING: NUMERICAL OSCILLATION ENCOUNTERED
 ONE OR MORE CELL CONCENTRATIONS LESS THAN CRHOREF
 SMALLEST DENSITY =  0.100E+04
 AT CELL (I,J,K) = (   1,  67,   8)

 
 SOLVING FOR HEAD 


     2 CALLS TO PCG ROUTINE FOR TIME STEP   1 IN STRESS PERIOD    1
     5 TOTAL ITERATIONS

 MAXIMUM HEAD CHANGE FOR EACH ITERATION (1 INDICATES THE FIRST INNER ITERATION):

    HEAD CHANGE    HEAD CHANGE    HEAD CHANGE    HEAD CHANGE    HEAD CHANGE 
   LAYER,ROW,COL  LAYER,ROW,COL  LAYER,ROW,COL  LAYER,ROW,COL  LAYER,ROW,COL
 ---------------------------------------------------------------------------
  1 -0.1446E-02  0 -0.1500E-02  0  0.1493E-02  0 -0.6506E-03  1 -0.3711E-03
   ( 23,  1, 71)  ( 10,  1, 12)  ( 10,  1, 12)  ( 11,  1, 60)  ( 11,  1, 69)

 MAXIMUM RESIDUAL FOR EACH ITERATION (1 INDICATES THE FIRST INNER ITERATION):

    RESIDUAL       RESIDUAL       RESIDUAL       RESIDUAL       RESIDUAL    
   LAYER,ROW,COL  LAYER,ROW,COL  LAYER,ROW,COL  LAYER,ROW,COL  LAYER,ROW,COL
 ---------------------------------------------------------------------------
  1  0.1455E+05  0   6980.      0   899.1      0   829.4      1   659.8    
   ( 20,  1, 85)  ( 20,  1, 85)  ( 21,  1, 84)  ( 20,  1, 84)  ( 22,  1, 89)


 FLOW MODEL IS TRANSIENT
 FLOW MODEL CONTAINS CONSTANT-HEAD CELLS


 MAXIMUM STEPSIZE DURING WHICH ANY PARTICLE CANNOT MOVE MORE THAN ONE CELL
 =  16.58    (WHEN MIN. R.F.=1)  AT K=  18, I=   1, J=  91

 MAXIMUM STEPSIZE WHICH MEETS STABILITY CRITERION OF THE ADVECTION TERM
 (FOR PURE FINITE-DIFFERENCE OPTION, MIXELM=0) 
 =  9.511    (WHEN MIN. R.F.=1)  AT K=  16, I=   1, J=  90


 TOTAL NUMBER OF POINT SOURCES/SINKS PRESENT IN THE FLOW MODEL =    30

 MAXIMUM STEPSIZE WHICH MEETS STABILITY CRITERION OF THE SINK & SOURCE TERM
 =  13.49    (WHEN MIN. R.F.=1)  AT K=  17, I=   1, J=  91

 MAXIMUM STEPSIZE WHICH MEETS STABILITY CRITERION OF THE DISPERSION TERM
 =  5.015    (WHEN MIN. R.F.=1)  AT K=  16, I=   1, J=  89
     1 CALLS TO GCG PACKAGE FOR TRANSPORT TIME STEP 207 IN FLOW TIME STEP   1 STRESS PERIOD   1
     4 TOTAL ITERATIONS
0WARNING: NUMERICAL OSCILLATION ENCOUNTERED
 ONE OR MORE CELL CONCENTRATIONS LESS THAN CRHOREF
 SMALLEST DENSITY =  0.100E+04
 AT CELL (I,J,K) = (   1,  67,   8)

 
 SOLVING FOR HEAD 


     2 CALLS TO PCG ROUTINE FOR TIME STEP   1 IN STRESS PERIOD    1
     5 TOTAL ITERATIONS

 MAXIMUM HEAD CHANGE FOR EACH ITERATION (1 INDICATES THE FIRST INNER ITERATION):

    HEAD CHANGE    HEAD CHANGE    HEAD CHANGE    HEAD CHANGE    HEAD CHANGE 
   LAYER,ROW,COL  LAYER,ROW,COL  LAYER,ROW,COL  LAYER,ROW,COL  LAYER,ROW,COL
 ---------------------------------------------------------------------------
  1 -0.1422E-02  0 -0.1490E-02  0  0.1480E-02  0 -0.5993E-03  1 -0.3783E-03
   ( 23,  1, 71)  ( 10,  1, 12)  ( 10,  1, 12)  ( 11,  1, 60)  ( 11,  1, 69)

 MAXIMUM RESIDUAL FOR EACH ITERATION (1 INDICATES THE FIRST INNER ITERATION):

    RESIDUAL       RESIDUAL       RESIDUAL       RESIDUAL       RESIDUAL    
   LAYER,ROW,COL  LAYER,ROW,COL  LAYER,ROW,COL  LAYER,ROW,COL  LAYER,ROW,COL
 ---------------------------------------------------------------------------
  1  0.1520E+05  0   6935.      0   1155.      0   1024.      1   793.2    
   ( 20,  1, 85)  ( 20,  1, 85)  ( 19,  1, 86)  ( 19,  1, 86)  ( 19,  1, 86)


 FLOW MODEL IS TRANSIENT
 FLOW MODEL CONTAINS CONSTANT-HEAD CELLS


 MAXIMUM STEPSIZE DURING WHICH ANY PARTICLE CANNOT MOVE MORE THAN ONE CELL
 =  16.56    (WHEN MIN. R.F.=1)  AT K=  18, I=   1, J=  91

 MAXIMUM STEPSIZE WHICH MEETS STABILITY CRITERION OF THE ADVECTION TERM
 (FOR PURE FINITE-DIFFERENCE OPTION, MIXELM=0) 
 =  9.497    (WHEN MIN. R.F.=1)  AT K=  16, I=   1, J=  90


 TOTAL NUMBER OF POINT SOURCES/SINKS PRESENT IN THE FLOW MODEL =    30

 MAXIMUM STEPSIZE WHICH MEETS STABILITY CRITERION OF THE SINK & SOURCE TERM
 =  13.47    (WHEN MIN. R.F.=1)  AT K=  17, I=   1, J=  91

 MAXIMUM STEPSIZE WHICH MEETS STABILITY CRITERION OF THE DISPERSION TERM
 =  5.008    (WHEN MIN. R.F.=1)  AT K=  16, I=   1, J=  89
     1 CALLS TO GCG PACKAGE FOR TRANSPORT TIME STEP 208 IN FLOW TIME STEP   1 STRESS PERIOD   1
     4 TOTAL ITERATIONS
0WARNING: NUMERICAL OSCILLATION ENCOUNTERED
 ONE OR MORE CELL CONCENTRATIONS LESS THAN CRHOREF
 SMALLEST DENSITY =  0.100E+04
 AT CELL (I,J,K) = (   1,  67,   8)

 
 SOLVING FOR HEAD 


     2 CALLS TO PCG ROUTINE FOR TIME STEP   1 IN STRESS PERIOD    1
     5 TOTAL ITERATIONS

 MAXIMUM HEAD CHANGE FOR EACH ITERATION (1 INDICATES THE FIRST INNER ITERATION):

    HEAD CHANGE    HEAD CHANGE    HEAD CHANGE    HEAD CHANGE    HEAD CHANGE 
   LAYER,ROW,COL  LAYER,ROW,COL  LAYER,ROW,COL  LAYER,ROW,COL  LAYER,ROW,COL
 ---------------------------------------------------------------------------
  1 -0.1414E-02  0 -0.1471E-02  0  0.1477E-02  0 -0.6570E-03  1 -0.3855E-03
   ( 23,  1, 71)  ( 10,  1, 12)  ( 10,  1, 12)  ( 11,  1, 60)  ( 11,  1, 69)

 MAXIMUM RESIDUAL FOR EACH ITERATION (1 INDICATES THE FIRST INNER ITERATION):

    RESIDUAL       RESIDUAL       RESIDUAL       RESIDUAL       RESIDUAL    
   LAYER,ROW,COL  LAYER,ROW,COL  LAYER,ROW,COL  LAYER,ROW,COL  LAYER,ROW,COL
 ---------------------------------------------------------------------------
  1  0.1485E+05  0   6707.      0  -1119.      0   1022.      1   834.9    
   ( 20,  1, 85)  ( 20,  1, 85)  ( 18,  1, 85)  ( 22,  1, 85)  ( 22,  1, 85)


 FLOW MODEL IS TRANSIENT
 FLOW MODEL CONTAINS CONSTANT-HEAD CELLS


 MAXIMUM STEPSIZE DURING WHICH ANY PARTICLE CANNOT MOVE MORE THAN ONE CELL
 =  16.54    (WHEN MIN. R.F.=1)  AT K=  18, I=   1, J=  91

 MAXIMUM STEPSIZE WHICH MEETS STABILITY CRITERION OF THE ADVECTION TERM
 (FOR PURE FINITE-DIFFERENCE OPTION, MIXELM=0) 
 =  9.482    (WHEN MIN. R.F.=1)  AT K=  16, I=   1, J=  90


 TOTAL NUMBER OF POINT SOURCES/SINKS PRESENT IN THE FLOW MODEL =    30

 MAXIMUM STEPSIZE WHICH MEETS STABILITY CRITERION OF THE SINK & SOURCE TERM
 =  13.45    (WHEN MIN. R.F.=1)  AT K=  17, I=   1, J=  91

 MAXIMUM STEPSIZE WHICH MEETS STABILITY CRITERION OF THE DISPERSION TERM
 =  5.000    (WHEN MIN. R.F.=1)  AT K=  16, I=   1, J=  89
     1 CALLS TO GCG PACKAGE FOR TRANSPORT TIME STEP 209 IN FLOW TIME STEP   1 STRESS PERIOD   1
     4 TOTAL ITERATIONS
0WARNING: NUMERICAL OSCILLATION ENCOUNTERED
 ONE OR MORE CELL CONCENTRATIONS LESS THAN CRHOREF
 SMALLEST DENSITY =  0.100E+04
 AT CELL (I,J,K) = (   1,  67,   8)

 
 SOLVING FOR HEAD 


     2 CALLS TO PCG ROUTINE FOR TIME STEP   1 IN STRESS PERIOD    1
     5 TOTAL ITERATIONS

 MAXIMUM HEAD CHANGE FOR EACH ITERATION (1 INDICATES THE FIRST INNER ITERATION):

    HEAD CHANGE    HEAD CHANGE    HEAD CHANGE    HEAD CHANGE    HEAD CHANGE 
   LAYER,ROW,COL  LAYER,ROW,COL  LAYER,ROW,COL  LAYER,ROW,COL  LAYER,ROW,COL
 ---------------------------------------------------------------------------
  1 -0.1414E-02  0 -0.1462E-02  0  0.1463E-02  0 -0.6323E-03  1 -0.3703E-03
   ( 23,  1, 71)  ( 10,  1, 12)  ( 10,  1, 12)  ( 11,  1, 60)  ( 11,  1, 69)

 MAXIMUM RESIDUAL FOR EACH ITERATION (1 INDICATES THE FIRST INNER ITERATION):

    RESIDUAL       RESIDUAL       RESIDUAL       RESIDUAL       RESIDUAL    
   LAYER,ROW,COL  LAYER,ROW,COL  LAYER,ROW,COL  LAYER,ROW,COL  LAYER,ROW,COL
 ---------------------------------------------------------------------------
  1  0.1385E+05  0   6601.      0  -918.9      0   821.9      1   666.6    
   ( 20,  1, 85)  ( 21,  1, 84)  ( 18,  1, 85)  ( 20,  1, 84)  ( 22,  1, 85)


 FLOW MODEL IS TRANSIENT
 FLOW MODEL CONTAINS CONSTANT-HEAD CELLS


 MAXIMUM STEPSIZE DURING WHICH ANY PARTICLE CANNOT MOVE MORE THAN ONE CELL
 =  16.51    (WHEN MIN. R.F.=1)  AT K=  18, I=   1, J=  91

 MAXIMUM STEPSIZE WHICH MEETS STABILITY CRITERION OF THE ADVECTION TERM
 (FOR PURE FINITE-DIFFERENCE OPTION, MIXELM=0) 
 =  9.472    (WHEN MIN. R.F.=1)  AT K=  16, I=   1, J=  90


 TOTAL NUMBER OF POINT SOURCES/SINKS PRESENT IN THE FLOW MODEL =    30

 MAXIMUM STEPSIZE WHICH MEETS STABILITY CRITERION OF THE SINK & SOURCE TERM
 =  13.43    (WHEN MIN. R.F.=1)  AT K=  17, I=   1, J=  91

 MAXIMUM STEPSIZE WHICH MEETS STABILITY CRITERION OF THE DISPERSION TERM
 =  4.996    (WHEN MIN. R.F.=1)  AT K=  16, I=   1, J=  89
     1 CALLS TO GCG PACKAGE FOR TRANSPORT TIME STEP 210 IN FLOW TIME STEP   1 STRESS PERIOD   1
     4 TOTAL ITERATIONS
  MAXIMUM CONCENTRATION CHANGES FOR EACH ITERATION:
  MAX. CHANGE LAYER,ROW,COL MAX. CHANGE LAYER,ROW,COL MAX. CHANGE LAYER,ROW,COL MAX. CHANGE LAYER,ROW,COL MAX. CHANGE LAYER,ROW,COL
 ------------------------------------------------------------------------------------------------------------------------------------
   0.3304     ( 16,  1, 90)  0.7014E-03 ( 17,  1, 89)  0.1810E-04 ( 16,  1, 89)  0.1301E-06 ( 17,  1, 88)



 >>>>>>>>>>>>>>>>>>>>>>>>>>>>>>>>>>>>>>>>>>>>>>>>>>>>>>>FOR COMPONENT NO. 01<<<<<<<<<<<<<<<<<<<<<<<<<<<<<<<<<<<<<<<<<<<<<<<<<<<<<<<


                                            -------------------------------------------
                                                      TRANSPORT STEP NO.  210
                                            -------------------------------------------

 TOTAL ELAPSED TIME SINCE BEGINNING OF SIMULATION =   1529.443    D   
 .....................................................................

                     CUMMULATIVE MASS BUDGETS AT END OF TRANSPORT STEP  210, TIME STEP    1, STRESS PERIOD    1
                     ------------------------------------------------------------------------------------------

                                                             IN                           OUT
                                                      ----------------             ----------------
                               CONSTANT CONCENTRATION:    0.000000                    0.000000    
                                        CONSTANT HEAD:   0.2537095E+08              -0.2861564E+08
                                             RECHARGE:    0.000000                    0.000000    
                                MASS STORAGE (SOLUTE):   0.2510465E+08              -0.2185997E+08
                            ---------------------------------------------------------------------------
                                              [TOTAL]:   0.5047676E+08 KG           -0.5047675E+08 KG  

                                                          NET (IN - OUT):    1.176835    
                                                   DISCREPANCY (PERCENT):   0.2331440E-05
0WARNING: NUMERICAL OSCILLATION ENCOUNTERED
 ONE OR MORE CELL CONCENTRATIONS LESS THAN CRHOREF
 SMALLEST DENSITY =  0.100E+04
 AT CELL (I,J,K) = (   1,  67,   8)

 
 SOLVING FOR HEAD 


     2 CALLS TO PCG ROUTINE FOR TIME STEP   1 IN STRESS PERIOD    1
     5 TOTAL ITERATIONS

 MAXIMUM HEAD CHANGE FOR EACH ITERATION (1 INDICATES THE FIRST INNER ITERATION):

    HEAD CHANGE    HEAD CHANGE    HEAD CHANGE    HEAD CHANGE    HEAD CHANGE 
   LAYER,ROW,COL  LAYER,ROW,COL  LAYER,ROW,COL  LAYER,ROW,COL  LAYER,ROW,COL
 ---------------------------------------------------------------------------
  1 -0.1396E-02  0 -0.1457E-02  0  0.1447E-02  0 -0.6016E-03  1 -0.3538E-03
   ( 23,  1, 71)  ( 10,  1, 12)  ( 10,  1, 12)  ( 11,  1, 60)  ( 11,  1, 69)

 MAXIMUM RESIDUAL FOR EACH ITERATION (1 INDICATES THE FIRST INNER ITERATION):

    RESIDUAL       RESIDUAL       RESIDUAL       RESIDUAL       RESIDUAL    
   LAYER,ROW,COL  LAYER,ROW,COL  LAYER,ROW,COL  LAYER,ROW,COL  LAYER,ROW,COL
 ---------------------------------------------------------------------------
  1  0.1401E+05  0   6413.      0   916.9      0  -823.9      1  -656.1    
   ( 20,  1, 85)  ( 21,  1, 84)  ( 19,  1, 88)  ( 22,  1, 88)  ( 22,  1, 88)


 FLOW MODEL IS TRANSIENT
 FLOW MODEL CONTAINS CONSTANT-HEAD CELLS


 MAXIMUM STEPSIZE DURING WHICH ANY PARTICLE CANNOT MOVE MORE THAN ONE CELL
 =  16.48    (WHEN MIN. R.F.=1)  AT K=  18, I=   1, J=  91

 MAXIMUM STEPSIZE WHICH MEETS STABILITY CRITERION OF THE ADVECTION TERM
 (FOR PURE FINITE-DIFFERENCE OPTION, MIXELM=0) 
 =  9.461    (WHEN MIN. R.F.=1)  AT K=  16, I=   1, J=  90


 TOTAL NUMBER OF POINT SOURCES/SINKS PRESENT IN THE FLOW MODEL =    30

 MAXIMUM STEPSIZE WHICH MEETS STABILITY CRITERION OF THE SINK & SOURCE TERM
 =  13.41    (WHEN MIN. R.F.=1)  AT K=  17, I=   1, J=  91

 MAXIMUM STEPSIZE WHICH MEETS STABILITY CRITERION OF THE DISPERSION TERM
 =  4.991    (WHEN MIN. R.F.=1)  AT K=  16, I=   1, J=  89
     1 CALLS TO GCG PACKAGE FOR TRANSPORT TIME STEP 211 IN FLOW TIME STEP   1 STRESS PERIOD   1
     4 TOTAL ITERATIONS
0WARNING: NUMERICAL OSCILLATION ENCOUNTERED
 ONE OR MORE CELL CONCENTRATIONS LESS THAN CRHOREF
 SMALLEST DENSITY =  0.100E+04
 AT CELL (I,J,K) = (   1,  67,   8)

 
 SOLVING FOR HEAD 


     2 CALLS TO PCG ROUTINE FOR TIME STEP   1 IN STRESS PERIOD    1
     5 TOTAL ITERATIONS

 MAXIMUM HEAD CHANGE FOR EACH ITERATION (1 INDICATES THE FIRST INNER ITERATION):

    HEAD CHANGE    HEAD CHANGE    HEAD CHANGE    HEAD CHANGE    HEAD CHANGE 
   LAYER,ROW,COL  LAYER,ROW,COL  LAYER,ROW,COL  LAYER,ROW,COL  LAYER,ROW,COL
 ---------------------------------------------------------------------------
  1 -0.1377E-02  0 -0.1438E-02  0  0.1438E-02  0 -0.6041E-03  1 -0.3675E-03
   ( 23,  1, 71)  ( 10,  1, 12)  ( 10,  1, 12)  ( 11,  1, 60)  ( 11,  1, 69)

 MAXIMUM RESIDUAL FOR EACH ITERATION (1 INDICATES THE FIRST INNER ITERATION):

    RESIDUAL       RESIDUAL       RESIDUAL       RESIDUAL       RESIDUAL    
   LAYER,ROW,COL  LAYER,ROW,COL  LAYER,ROW,COL  LAYER,ROW,COL  LAYER,ROW,COL
 ---------------------------------------------------------------------------
  1  0.1430E+05  0   6128.      0   1101.      0   1002.      1   782.8    
   ( 20,  1, 85)  ( 21,  1, 84)  ( 19,  1, 86)  ( 19,  1, 86)  ( 19,  1, 86)


 FLOW MODEL IS TRANSIENT
 FLOW MODEL CONTAINS CONSTANT-HEAD CELLS


 MAXIMUM STEPSIZE DURING WHICH ANY PARTICLE CANNOT MOVE MORE THAN ONE CELL
 =  16.47    (WHEN MIN. R.F.=1)  AT K=  18, I=   1, J=  91

 MAXIMUM STEPSIZE WHICH MEETS STABILITY CRITERION OF THE ADVECTION TERM
 (FOR PURE FINITE-DIFFERENCE OPTION, MIXELM=0) 
 =  9.447    (WHEN MIN. R.F.=1)  AT K=  16, I=   1, J=  90


 TOTAL NUMBER OF POINT SOURCES/SINKS PRESENT IN THE FLOW MODEL =    30

 MAXIMUM STEPSIZE WHICH MEETS STABILITY CRITERION OF THE SINK & SOURCE TERM
 =  13.39    (WHEN MIN. R.F.=1)  AT K=  17, I=   1, J=  91

 MAXIMUM STEPSIZE WHICH MEETS STABILITY CRITERION OF THE DISPERSION TERM
 =  4.983    (WHEN MIN. R.F.=1)  AT K=  16, I=   1, J=  89
     1 CALLS TO GCG PACKAGE FOR TRANSPORT TIME STEP 212 IN FLOW TIME STEP   1 STRESS PERIOD   1
     4 TOTAL ITERATIONS
0WARNING: NUMERICAL OSCILLATION ENCOUNTERED
 ONE OR MORE CELL CONCENTRATIONS LESS THAN CRHOREF
 SMALLEST DENSITY =  0.100E+04
 AT CELL (I,J,K) = (   1,  67,   8)

 
 SOLVING FOR HEAD 


     2 CALLS TO PCG ROUTINE FOR TIME STEP   1 IN STRESS PERIOD    1
     5 TOTAL ITERATIONS

 MAXIMUM HEAD CHANGE FOR EACH ITERATION (1 INDICATES THE FIRST INNER ITERATION):

    HEAD CHANGE    HEAD CHANGE    HEAD CHANGE    HEAD CHANGE    HEAD CHANGE 
   LAYER,ROW,COL  LAYER,ROW,COL  LAYER,ROW,COL  LAYER,ROW,COL  LAYER,ROW,COL
 ---------------------------------------------------------------------------
  1 -0.1371E-02  0 -0.1420E-02  0  0.1427E-02  0 -0.6312E-03  1 -0.3670E-03
   ( 23,  1, 71)  ( 10,  1, 12)  ( 10,  1, 12)  ( 11,  1, 60)  ( 11,  1, 69)

 MAXIMUM RESIDUAL FOR EACH ITERATION (1 INDICATES THE FIRST INNER ITERATION):

    RESIDUAL       RESIDUAL       RESIDUAL       RESIDUAL       RESIDUAL    
   LAYER,ROW,COL  LAYER,ROW,COL  LAYER,ROW,COL  LAYER,ROW,COL  LAYER,ROW,COL
 ---------------------------------------------------------------------------
  1  0.1343E+05  0   6035.      0   961.0      0   880.5      1   700.4    
   ( 20,  1, 85)  ( 21,  1, 84)  ( 17,  1, 89)  ( 17,  1, 89)  ( 17,  1, 89)


 FLOW MODEL IS TRANSIENT
 FLOW MODEL CONTAINS CONSTANT-HEAD CELLS


 MAXIMUM STEPSIZE DURING WHICH ANY PARTICLE CANNOT MOVE MORE THAN ONE CELL
 =  16.44    (WHEN MIN. R.F.=1)  AT K=  18, I=   1, J=  91

 MAXIMUM STEPSIZE WHICH MEETS STABILITY CRITERION OF THE ADVECTION TERM
 (FOR PURE FINITE-DIFFERENCE OPTION, MIXELM=0) 
 =  9.435    (WHEN MIN. R.F.=1)  AT K=  16, I=   1, J=  90


 TOTAL NUMBER OF POINT SOURCES/SINKS PRESENT IN THE FLOW MODEL =    30

 MAXIMUM STEPSIZE WHICH MEETS STABILITY CRITERION OF THE SINK & SOURCE TERM
 =  13.38    (WHEN MIN. R.F.=1)  AT K=  17, I=   1, J=  91

 MAXIMUM STEPSIZE WHICH MEETS STABILITY CRITERION OF THE DISPERSION TERM
 =  4.978    (WHEN MIN. R.F.=1)  AT K=  16, I=   1, J=  89
     1 CALLS TO GCG PACKAGE FOR TRANSPORT TIME STEP 213 IN FLOW TIME STEP   1 STRESS PERIOD   1
     4 TOTAL ITERATIONS
0WARNING: NUMERICAL OSCILLATION ENCOUNTERED
 ONE OR MORE CELL CONCENTRATIONS LESS THAN CRHOREF
 SMALLEST DENSITY =  0.100E+04
 AT CELL (I,J,K) = (   1,  67,   8)

 
 SOLVING FOR HEAD 


     2 CALLS TO PCG ROUTINE FOR TIME STEP   1 IN STRESS PERIOD    1
     5 TOTAL ITERATIONS

 MAXIMUM HEAD CHANGE FOR EACH ITERATION (1 INDICATES THE FIRST INNER ITERATION):

    HEAD CHANGE    HEAD CHANGE    HEAD CHANGE    HEAD CHANGE    HEAD CHANGE 
   LAYER,ROW,COL  LAYER,ROW,COL  LAYER,ROW,COL  LAYER,ROW,COL  LAYER,ROW,COL
 ---------------------------------------------------------------------------
  1 -0.1365E-02  0 -0.1418E-02  0  0.1414E-02  0 -0.5997E-03  1 -0.3372E-03
   ( 23,  1, 71)  ( 10,  1, 12)  ( 10,  1, 12)  ( 11,  1, 60)  ( 11,  1, 69)

 MAXIMUM RESIDUAL FOR EACH ITERATION (1 INDICATES THE FIRST INNER ITERATION):

    RESIDUAL       RESIDUAL       RESIDUAL       RESIDUAL       RESIDUAL    
   LAYER,ROW,COL  LAYER,ROW,COL  LAYER,ROW,COL  LAYER,ROW,COL  LAYER,ROW,COL
 ---------------------------------------------------------------------------
  1 -0.1308E+05  0   5959.      0   772.4      0   716.0      1   570.3    
   ( 19,  1, 84)  ( 21,  1, 84)  ( 20,  1, 84)  ( 20,  1, 84)  ( 22,  1, 89)


 FLOW MODEL IS TRANSIENT
 FLOW MODEL CONTAINS CONSTANT-HEAD CELLS


 MAXIMUM STEPSIZE DURING WHICH ANY PARTICLE CANNOT MOVE MORE THAN ONE CELL
 =  16.42    (WHEN MIN. R.F.=1)  AT K=  18, I=   1, J=  91

 MAXIMUM STEPSIZE WHICH MEETS STABILITY CRITERION OF THE ADVECTION TERM
 (FOR PURE FINITE-DIFFERENCE OPTION, MIXELM=0) 
 =  9.426    (WHEN MIN. R.F.=1)  AT K=  16, I=   1, J=  90


 TOTAL NUMBER OF POINT SOURCES/SINKS PRESENT IN THE FLOW MODEL =    30

 MAXIMUM STEPSIZE WHICH MEETS STABILITY CRITERION OF THE SINK & SOURCE TERM
 =  13.36    (WHEN MIN. R.F.=1)  AT K=  17, I=   1, J=  91

 MAXIMUM STEPSIZE WHICH MEETS STABILITY CRITERION OF THE DISPERSION TERM
 =  4.974    (WHEN MIN. R.F.=1)  AT K=  16, I=   1, J=  89
     1 CALLS TO GCG PACKAGE FOR TRANSPORT TIME STEP 214 IN FLOW TIME STEP   1 STRESS PERIOD   1
     4 TOTAL ITERATIONS
0WARNING: NUMERICAL OSCILLATION ENCOUNTERED
 ONE OR MORE CELL CONCENTRATIONS LESS THAN CRHOREF
 SMALLEST DENSITY =  0.100E+04
 AT CELL (I,J,K) = (   1,  67,   8)

 
 SOLVING FOR HEAD 


     2 CALLS TO PCG ROUTINE FOR TIME STEP   1 IN STRESS PERIOD    1
     5 TOTAL ITERATIONS

 MAXIMUM HEAD CHANGE FOR EACH ITERATION (1 INDICATES THE FIRST INNER ITERATION):

    HEAD CHANGE    HEAD CHANGE    HEAD CHANGE    HEAD CHANGE    HEAD CHANGE 
   LAYER,ROW,COL  LAYER,ROW,COL  LAYER,ROW,COL  LAYER,ROW,COL  LAYER,ROW,COL
 ---------------------------------------------------------------------------
  1 -0.1334E-02  0 -0.1399E-02  0  0.1391E-02  0 -0.5627E-03  1 -0.3431E-03
   ( 23,  1, 71)  ( 10,  1, 12)  ( 10,  1, 12)  ( 11,  1, 60)  ( 11,  1, 69)

 MAXIMUM RESIDUAL FOR EACH ITERATION (1 INDICATES THE FIRST INNER ITERATION):

    RESIDUAL       RESIDUAL       RESIDUAL       RESIDUAL       RESIDUAL    
   LAYER,ROW,COL  LAYER,ROW,COL  LAYER,ROW,COL  LAYER,ROW,COL  LAYER,ROW,COL
 ---------------------------------------------------------------------------
  1 -0.1277E+05  0   5795.      0   969.5      0   855.5      1   683.3    
   ( 19,  1, 84)  ( 21,  1, 84)  ( 19,  1, 86)  ( 22,  1, 87)  ( 22,  1, 87)


 FLOW MODEL IS TRANSIENT
 FLOW MODEL CONTAINS CONSTANT-HEAD CELLS


 MAXIMUM STEPSIZE DURING WHICH ANY PARTICLE CANNOT MOVE MORE THAN ONE CELL
 =  16.39    (WHEN MIN. R.F.=1)  AT K=  18, I=   1, J=  91

 MAXIMUM STEPSIZE WHICH MEETS STABILITY CRITERION OF THE ADVECTION TERM
 (FOR PURE FINITE-DIFFERENCE OPTION, MIXELM=0) 
 =  9.414    (WHEN MIN. R.F.=1)  AT K=  16, I=   1, J=  90


 TOTAL NUMBER OF POINT SOURCES/SINKS PRESENT IN THE FLOW MODEL =    30

 MAXIMUM STEPSIZE WHICH MEETS STABILITY CRITERION OF THE SINK & SOURCE TERM
 =  13.34    (WHEN MIN. R.F.=1)  AT K=  17, I=   1, J=  91

 MAXIMUM STEPSIZE WHICH MEETS STABILITY CRITERION OF THE DISPERSION TERM
 =  4.968    (WHEN MIN. R.F.=1)  AT K=  16, I=   1, J=  89
     1 CALLS TO GCG PACKAGE FOR TRANSPORT TIME STEP 215 IN FLOW TIME STEP   1 STRESS PERIOD   1
     4 TOTAL ITERATIONS
  MAXIMUM CONCENTRATION CHANGES FOR EACH ITERATION:
  MAX. CHANGE LAYER,ROW,COL MAX. CHANGE LAYER,ROW,COL MAX. CHANGE LAYER,ROW,COL MAX. CHANGE LAYER,ROW,COL MAX. CHANGE LAYER,ROW,COL
 ------------------------------------------------------------------------------------------------------------------------------------
   0.3304     ( 16,  1, 90)  0.7015E-03 ( 17,  1, 89)  0.1812E-04 ( 16,  1, 89)  0.1308E-06 ( 17,  1, 88)
0WARNING: NUMERICAL OSCILLATION ENCOUNTERED
 ONE OR MORE CELL CONCENTRATIONS LESS THAN CRHOREF
 SMALLEST DENSITY =  0.100E+04
 AT CELL (I,J,K) = (   1,  67,   8)

 
 SOLVING FOR HEAD 


     2 CALLS TO PCG ROUTINE FOR TIME STEP   1 IN STRESS PERIOD    1
     5 TOTAL ITERATIONS

 MAXIMUM HEAD CHANGE FOR EACH ITERATION (1 INDICATES THE FIRST INNER ITERATION):

    HEAD CHANGE    HEAD CHANGE    HEAD CHANGE    HEAD CHANGE    HEAD CHANGE 
   LAYER,ROW,COL  LAYER,ROW,COL  LAYER,ROW,COL  LAYER,ROW,COL  LAYER,ROW,COL
 ---------------------------------------------------------------------------
  1 -0.1316E-02  0 -0.1373E-02  0  0.1379E-02  0 -0.6040E-03  1 -0.3407E-03
   ( 23,  1, 71)  ( 10,  1, 12)  ( 10,  1, 12)  ( 11,  1, 60)  ( 11,  1, 69)

 MAXIMUM RESIDUAL FOR EACH ITERATION (1 INDICATES THE FIRST INNER ITERATION):

    RESIDUAL       RESIDUAL       RESIDUAL       RESIDUAL       RESIDUAL    
   LAYER,ROW,COL  LAYER,ROW,COL  LAYER,ROW,COL  LAYER,ROW,COL  LAYER,ROW,COL
 ---------------------------------------------------------------------------
  1 -0.1268E+05  0  -5527.      0   836.2      0  -772.3      1  -614.7    
   ( 22,  1, 55)  ( 22,  1, 55)  ( 18,  1, 89)  ( 22,  1, 89)  ( 22,  1, 86)


 FLOW MODEL IS TRANSIENT
 FLOW MODEL CONTAINS CONSTANT-HEAD CELLS


 MAXIMUM STEPSIZE DURING WHICH ANY PARTICLE CANNOT MOVE MORE THAN ONE CELL
 =  16.38    (WHEN MIN. R.F.=1)  AT K=  18, I=   1, J=  91

 MAXIMUM STEPSIZE WHICH MEETS STABILITY CRITERION OF THE ADVECTION TERM
 (FOR PURE FINITE-DIFFERENCE OPTION, MIXELM=0) 
 =  9.400    (WHEN MIN. R.F.=1)  AT K=  16, I=   1, J=  90


 TOTAL NUMBER OF POINT SOURCES/SINKS PRESENT IN THE FLOW MODEL =    30

 MAXIMUM STEPSIZE WHICH MEETS STABILITY CRITERION OF THE SINK & SOURCE TERM
 =  13.32    (WHEN MIN. R.F.=1)  AT K=  17, I=   1, J=  91

 MAXIMUM STEPSIZE WHICH MEETS STABILITY CRITERION OF THE DISPERSION TERM
 =  4.961    (WHEN MIN. R.F.=1)  AT K=  16, I=   1, J=  89
     1 CALLS TO GCG PACKAGE FOR TRANSPORT TIME STEP 216 IN FLOW TIME STEP   1 STRESS PERIOD   1
     4 TOTAL ITERATIONS
0WARNING: NUMERICAL OSCILLATION ENCOUNTERED
 ONE OR MORE CELL CONCENTRATIONS LESS THAN CRHOREF
 SMALLEST DENSITY =  0.100E+04
 AT CELL (I,J,K) = (   1,  67,   8)

 
 SOLVING FOR HEAD 


     2 CALLS TO PCG ROUTINE FOR TIME STEP   1 IN STRESS PERIOD    1
     5 TOTAL ITERATIONS

 MAXIMUM HEAD CHANGE FOR EACH ITERATION (1 INDICATES THE FIRST INNER ITERATION):

    HEAD CHANGE    HEAD CHANGE    HEAD CHANGE    HEAD CHANGE    HEAD CHANGE 
   LAYER,ROW,COL  LAYER,ROW,COL  LAYER,ROW,COL  LAYER,ROW,COL  LAYER,ROW,COL
 ---------------------------------------------------------------------------
  1 -0.1312E-02  0 -0.1369E-02  0  0.1368E-02  0 -0.5710E-03  1 -0.3272E-03
   ( 23,  1, 71)  ( 10,  1, 12)  ( 10,  1, 12)  ( 11,  1, 60)  ( 11,  1, 69)

 MAXIMUM RESIDUAL FOR EACH ITERATION (1 INDICATES THE FIRST INNER ITERATION):

    RESIDUAL       RESIDUAL       RESIDUAL       RESIDUAL       RESIDUAL    
   LAYER,ROW,COL  LAYER,ROW,COL  LAYER,ROW,COL  LAYER,ROW,COL  LAYER,ROW,COL
 ---------------------------------------------------------------------------
  1 -0.1273E+05  0  -5795.      0   796.9      0   763.3      1   642.9    
   ( 22,  1, 55)  ( 22,  1, 55)  ( 17,  1, 89)  ( 17,  1, 89)  ( 17,  1, 89)


 FLOW MODEL IS TRANSIENT
 FLOW MODEL CONTAINS CONSTANT-HEAD CELLS


 MAXIMUM STEPSIZE DURING WHICH ANY PARTICLE CANNOT MOVE MORE THAN ONE CELL
 =  16.35    (WHEN MIN. R.F.=1)  AT K=  18, I=   1, J=  91

 MAXIMUM STEPSIZE WHICH MEETS STABILITY CRITERION OF THE ADVECTION TERM
 (FOR PURE FINITE-DIFFERENCE OPTION, MIXELM=0) 
 =  9.391    (WHEN MIN. R.F.=1)  AT K=  16, I=   1, J=  90


 TOTAL NUMBER OF POINT SOURCES/SINKS PRESENT IN THE FLOW MODEL =    30

 MAXIMUM STEPSIZE WHICH MEETS STABILITY CRITERION OF THE SINK & SOURCE TERM
 =  13.31    (WHEN MIN. R.F.=1)  AT K=  17, I=   1, J=  91

 MAXIMUM STEPSIZE WHICH MEETS STABILITY CRITERION OF THE DISPERSION TERM
 =  4.957    (WHEN MIN. R.F.=1)  AT K=  16, I=   1, J=  89
     1 CALLS TO GCG PACKAGE FOR TRANSPORT TIME STEP 217 IN FLOW TIME STEP   1 STRESS PERIOD   1
     4 TOTAL ITERATIONS
0WARNING: NUMERICAL OSCILLATION ENCOUNTERED
 ONE OR MORE CELL CONCENTRATIONS LESS THAN CRHOREF
 SMALLEST DENSITY =  0.100E+04
 AT CELL (I,J,K) = (   1,  67,   8)

 
 SOLVING FOR HEAD 


     2 CALLS TO PCG ROUTINE FOR TIME STEP   1 IN STRESS PERIOD    1
     5 TOTAL ITERATIONS

 MAXIMUM HEAD CHANGE FOR EACH ITERATION (1 INDICATES THE FIRST INNER ITERATION):

    HEAD CHANGE    HEAD CHANGE    HEAD CHANGE    HEAD CHANGE    HEAD CHANGE 
   LAYER,ROW,COL  LAYER,ROW,COL  LAYER,ROW,COL  LAYER,ROW,COL  LAYER,ROW,COL
 ---------------------------------------------------------------------------
  1 -0.1295E-02  0 -0.1362E-02  0  0.1351E-02  0 -0.5534E-03  1 -0.3204E-03
   ( 23,  1, 71)  ( 10,  1, 12)  ( 10,  1, 12)  ( 11,  1, 60)  ( 11,  1, 69)

 MAXIMUM RESIDUAL FOR EACH ITERATION (1 INDICATES THE FIRST INNER ITERATION):

    RESIDUAL       RESIDUAL       RESIDUAL       RESIDUAL       RESIDUAL    
   LAYER,ROW,COL  LAYER,ROW,COL  LAYER,ROW,COL  LAYER,ROW,COL  LAYER,ROW,COL
 ---------------------------------------------------------------------------
  1 -0.1265E+05  0  -5604.      0   930.8      0   814.1      1   650.7    
   ( 22,  1, 55)  ( 22,  1, 55)  ( 19,  1, 88)  ( 19,  1, 88)  ( 19,  1, 88)


 FLOW MODEL IS TRANSIENT
 FLOW MODEL CONTAINS CONSTANT-HEAD CELLS


 MAXIMUM STEPSIZE DURING WHICH ANY PARTICLE CANNOT MOVE MORE THAN ONE CELL
 =  16.33    (WHEN MIN. R.F.=1)  AT K=  18, I=   1, J=  91

 MAXIMUM STEPSIZE WHICH MEETS STABILITY CRITERION OF THE ADVECTION TERM
 (FOR PURE FINITE-DIFFERENCE OPTION, MIXELM=0) 
 =  9.382    (WHEN MIN. R.F.=1)  AT K=  16, I=   1, J=  90


 TOTAL NUMBER OF POINT SOURCES/SINKS PRESENT IN THE FLOW MODEL =    30

 MAXIMUM STEPSIZE WHICH MEETS STABILITY CRITERION OF THE SINK & SOURCE TERM
 =  13.29    (WHEN MIN. R.F.=1)  AT K=  17, I=   1, J=  91

 MAXIMUM STEPSIZE WHICH MEETS STABILITY CRITERION OF THE DISPERSION TERM
 =  4.953    (WHEN MIN. R.F.=1)  AT K=  16, I=   1, J=  89
     1 CALLS TO GCG PACKAGE FOR TRANSPORT TIME STEP 218 IN FLOW TIME STEP   1 STRESS PERIOD   1
     4 TOTAL ITERATIONS
0WARNING: NUMERICAL OSCILLATION ENCOUNTERED
 ONE OR MORE CELL CONCENTRATIONS LESS THAN CRHOREF
 SMALLEST DENSITY =  0.100E+04
 AT CELL (I,J,K) = (   1,  67,   8)

 
 SOLVING FOR HEAD 


     2 CALLS TO PCG ROUTINE FOR TIME STEP   1 IN STRESS PERIOD    1
     5 TOTAL ITERATIONS

 MAXIMUM HEAD CHANGE FOR EACH ITERATION (1 INDICATES THE FIRST INNER ITERATION):

    HEAD CHANGE    HEAD CHANGE    HEAD CHANGE    HEAD CHANGE    HEAD CHANGE 
   LAYER,ROW,COL  LAYER,ROW,COL  LAYER,ROW,COL  LAYER,ROW,COL  LAYER,ROW,COL
 ---------------------------------------------------------------------------
  1 -0.1274E-02  0 -0.1337E-02  0  0.1336E-02  0 -0.5643E-03  1 -0.3321E-03
   ( 23,  1, 71)  ( 10,  1, 12)  ( 10,  1, 12)  ( 11,  1, 60)  ( 11,  1, 69)

 MAXIMUM RESIDUAL FOR EACH ITERATION (1 INDICATES THE FIRST INNER ITERATION):

    RESIDUAL       RESIDUAL       RESIDUAL       RESIDUAL       RESIDUAL    
   LAYER,ROW,COL  LAYER,ROW,COL  LAYER,ROW,COL  LAYER,ROW,COL  LAYER,ROW,COL
 ---------------------------------------------------------------------------
  1 -0.1271E+05  0  -5375.      0  -903.4      0  -879.5      1  -711.4    
   ( 22,  1, 55)  ( 22,  1, 55)  ( 22,  1, 86)  ( 22,  1, 86)  ( 22,  1, 86)


 FLOW MODEL IS TRANSIENT
 FLOW MODEL CONTAINS CONSTANT-HEAD CELLS


 MAXIMUM STEPSIZE DURING WHICH ANY PARTICLE CANNOT MOVE MORE THAN ONE CELL
 =  16.31    (WHEN MIN. R.F.=1)  AT K=  18, I=   1, J=  91

 MAXIMUM STEPSIZE WHICH MEETS STABILITY CRITERION OF THE ADVECTION TERM
 (FOR PURE FINITE-DIFFERENCE OPTION, MIXELM=0) 
 =  9.368    (WHEN MIN. R.F.=1)  AT K=  16, I=   1, J=  90


 TOTAL NUMBER OF POINT SOURCES/SINKS PRESENT IN THE FLOW MODEL =    30

 MAXIMUM STEPSIZE WHICH MEETS STABILITY CRITERION OF THE SINK & SOURCE TERM
 =  13.27    (WHEN MIN. R.F.=1)  AT K=  17, I=   1, J=  91

 MAXIMUM STEPSIZE WHICH MEETS STABILITY CRITERION OF THE DISPERSION TERM
 =  4.945    (WHEN MIN. R.F.=1)  AT K=  16, I=   1, J=  89
     1 CALLS TO GCG PACKAGE FOR TRANSPORT TIME STEP 219 IN FLOW TIME STEP   1 STRESS PERIOD   1
     4 TOTAL ITERATIONS
0WARNING: NUMERICAL OSCILLATION ENCOUNTERED
 ONE OR MORE CELL CONCENTRATIONS LESS THAN CRHOREF
 SMALLEST DENSITY =  0.100E+04
 AT CELL (I,J,K) = (   1,  67,   8)

 
 SOLVING FOR HEAD 


     2 CALLS TO PCG ROUTINE FOR TIME STEP   1 IN STRESS PERIOD    1
     5 TOTAL ITERATIONS

 MAXIMUM HEAD CHANGE FOR EACH ITERATION (1 INDICATES THE FIRST INNER ITERATION):

    HEAD CHANGE    HEAD CHANGE    HEAD CHANGE    HEAD CHANGE    HEAD CHANGE 
   LAYER,ROW,COL  LAYER,ROW,COL  LAYER,ROW,COL  LAYER,ROW,COL  LAYER,ROW,COL
 ---------------------------------------------------------------------------
  1 -0.1267E-02  0 -0.1320E-02  0  0.1327E-02  0 -0.5802E-03  1 -0.3321E-03
   ( 23,  1, 71)  ( 10,  1, 12)  ( 10,  1, 12)  ( 11,  1, 60)  ( 11,  1, 69)

 MAXIMUM RESIDUAL FOR EACH ITERATION (1 INDICATES THE FIRST INNER ITERATION):

    RESIDUAL       RESIDUAL       RESIDUAL       RESIDUAL       RESIDUAL    
   LAYER,ROW,COL  LAYER,ROW,COL  LAYER,ROW,COL  LAYER,ROW,COL  LAYER,ROW,COL
 ---------------------------------------------------------------------------
  1 -0.1284E+05  0  -5494.      0   935.6      0   850.9      1   679.1    
   ( 22,  1, 55)  ( 22,  1, 55)  ( 17,  1, 89)  ( 17,  1, 89)  ( 17,  1, 89)


 FLOW MODEL IS TRANSIENT
 FLOW MODEL CONTAINS CONSTANT-HEAD CELLS


 MAXIMUM STEPSIZE DURING WHICH ANY PARTICLE CANNOT MOVE MORE THAN ONE CELL
 =  16.29    (WHEN MIN. R.F.=1)  AT K=  18, I=   1, J=  91

 MAXIMUM STEPSIZE WHICH MEETS STABILITY CRITERION OF THE ADVECTION TERM
 (FOR PURE FINITE-DIFFERENCE OPTION, MIXELM=0) 
 =  9.357    (WHEN MIN. R.F.=1)  AT K=  16, I=   1, J=  90


 TOTAL NUMBER OF POINT SOURCES/SINKS PRESENT IN THE FLOW MODEL =    30

 MAXIMUM STEPSIZE WHICH MEETS STABILITY CRITERION OF THE SINK & SOURCE TERM
 =  13.25    (WHEN MIN. R.F.=1)  AT K=  17, I=   1, J=  91

 MAXIMUM STEPSIZE WHICH MEETS STABILITY CRITERION OF THE DISPERSION TERM
 =  4.940    (WHEN MIN. R.F.=1)  AT K=  16, I=   1, J=  89
     1 CALLS TO GCG PACKAGE FOR TRANSPORT TIME STEP 220 IN FLOW TIME STEP   1 STRESS PERIOD   1
     4 TOTAL ITERATIONS
  MAXIMUM CONCENTRATION CHANGES FOR EACH ITERATION:
  MAX. CHANGE LAYER,ROW,COL MAX. CHANGE LAYER,ROW,COL MAX. CHANGE LAYER,ROW,COL MAX. CHANGE LAYER,ROW,COL MAX. CHANGE LAYER,ROW,COL
 ------------------------------------------------------------------------------------------------------------------------------------
   0.3303     ( 16,  1, 90)  0.7004E-03 ( 17,  1, 89)  0.1814E-04 ( 16,  1, 89)  0.1306E-06 ( 17,  1, 88)



 >>>>>>>>>>>>>>>>>>>>>>>>>>>>>>>>>>>>>>>>>>>>>>>>>>>>>>>FOR COMPONENT NO. 01<<<<<<<<<<<<<<<<<<<<<<<<<<<<<<<<<<<<<<<<<<<<<<<<<<<<<<<


                                            -------------------------------------------
                                                      TRANSPORT STEP NO.  220
                                            -------------------------------------------

 TOTAL ELAPSED TIME SINCE BEGINNING OF SIMULATION =   1576.542    D   
 .....................................................................

                     CUMMULATIVE MASS BUDGETS AT END OF TRANSPORT STEP  220, TIME STEP    1, STRESS PERIOD    1
                     ------------------------------------------------------------------------------------------

                                                             IN                           OUT
                                                      ----------------             ----------------
                               CONSTANT CONCENTRATION:    0.000000                    0.000000    
                                        CONSTANT HEAD:   0.2712922E+08              -0.3034967E+08
                                             RECHARGE:    0.000000                    0.000000    
                                MASS STORAGE (SOLUTE):   0.2523005E+08              -0.2200960E+08
                            ---------------------------------------------------------------------------
                                              [TOTAL]:   0.5236042E+08 KG           -0.5236042E+08 KG  

                                                          NET (IN - OUT):    1.216568    
                                                   DISCREPANCY (PERCENT):   0.2323450E-05
0WARNING: NUMERICAL OSCILLATION ENCOUNTERED
 ONE OR MORE CELL CONCENTRATIONS LESS THAN CRHOREF
 SMALLEST DENSITY =  0.100E+04
 AT CELL (I,J,K) = (   1,  67,   8)

 
 SOLVING FOR HEAD 


     2 CALLS TO PCG ROUTINE FOR TIME STEP   1 IN STRESS PERIOD    1
     5 TOTAL ITERATIONS

 MAXIMUM HEAD CHANGE FOR EACH ITERATION (1 INDICATES THE FIRST INNER ITERATION):

    HEAD CHANGE    HEAD CHANGE    HEAD CHANGE    HEAD CHANGE    HEAD CHANGE 
   LAYER,ROW,COL  LAYER,ROW,COL  LAYER,ROW,COL  LAYER,ROW,COL  LAYER,ROW,COL
 ---------------------------------------------------------------------------
  1 -0.1272E-02  0 -0.1324E-02  0  0.1321E-02  0 -0.5578E-03  1 -0.3092E-03
   ( 23,  1, 71)  ( 10,  1, 12)  ( 10,  1, 12)  ( 11,  1, 60)  ( 11,  1, 69)

 MAXIMUM RESIDUAL FOR EACH ITERATION (1 INDICATES THE FIRST INNER ITERATION):

    RESIDUAL       RESIDUAL       RESIDUAL       RESIDUAL       RESIDUAL    
   LAYER,ROW,COL  LAYER,ROW,COL  LAYER,ROW,COL  LAYER,ROW,COL  LAYER,ROW,COL
 ---------------------------------------------------------------------------
  1 -0.1258E+05  0  -5367.      0   811.8      0   720.3      1   575.5    
   ( 22,  1, 55)  ( 22,  1, 55)  ( 20,  1, 88)  ( 20,  1, 88)  ( 20,  1, 88)


 FLOW MODEL IS TRANSIENT
 FLOW MODEL CONTAINS CONSTANT-HEAD CELLS


 MAXIMUM STEPSIZE DURING WHICH ANY PARTICLE CANNOT MOVE MORE THAN ONE CELL
 =  16.27    (WHEN MIN. R.F.=1)  AT K=  18, I=   1, J=  91

 MAXIMUM STEPSIZE WHICH MEETS STABILITY CRITERION OF THE ADVECTION TERM
 (FOR PURE FINITE-DIFFERENCE OPTION, MIXELM=0) 
 =  9.350    (WHEN MIN. R.F.=1)  AT K=  16, I=   1, J=  90


 TOTAL NUMBER OF POINT SOURCES/SINKS PRESENT IN THE FLOW MODEL =    30

 MAXIMUM STEPSIZE WHICH MEETS STABILITY CRITERION OF THE SINK & SOURCE TERM
 =  13.24    (WHEN MIN. R.F.=1)  AT K=  17, I=   1, J=  91

 MAXIMUM STEPSIZE WHICH MEETS STABILITY CRITERION OF THE DISPERSION TERM
 =  4.937    (WHEN MIN. R.F.=1)  AT K=  16, I=   1, J=  89
     1 CALLS TO GCG PACKAGE FOR TRANSPORT TIME STEP 221 IN FLOW TIME STEP   1 STRESS PERIOD   1
     4 TOTAL ITERATIONS
0WARNING: NUMERICAL OSCILLATION ENCOUNTERED
 ONE OR MORE CELL CONCENTRATIONS LESS THAN CRHOREF
 SMALLEST DENSITY =  0.100E+04
 AT CELL (I,J,K) = (   1,  67,   8)

 
 SOLVING FOR HEAD 


     2 CALLS TO PCG ROUTINE FOR TIME STEP   1 IN STRESS PERIOD    1
     5 TOTAL ITERATIONS

 MAXIMUM HEAD CHANGE FOR EACH ITERATION (1 INDICATES THE FIRST INNER ITERATION):

    HEAD CHANGE    HEAD CHANGE    HEAD CHANGE    HEAD CHANGE    HEAD CHANGE 
   LAYER,ROW,COL  LAYER,ROW,COL  LAYER,ROW,COL  LAYER,ROW,COL  LAYER,ROW,COL
 ---------------------------------------------------------------------------
  1 -0.1252E-02  0 -0.1309E-02  0  0.1301E-02  0 -0.5308E-03  1 -0.3237E-03
   ( 23,  1, 71)  ( 10,  1, 12)  ( 10,  1, 12)  ( 11,  1, 61)  ( 11,  1, 69)

 MAXIMUM RESIDUAL FOR EACH ITERATION (1 INDICATES THE FIRST INNER ITERATION):

    RESIDUAL       RESIDUAL       RESIDUAL       RESIDUAL       RESIDUAL    
   LAYER,ROW,COL  LAYER,ROW,COL  LAYER,ROW,COL  LAYER,ROW,COL  LAYER,ROW,COL
 ---------------------------------------------------------------------------
  1 -0.1256E+05  0  -5199.      0   960.1      0   920.1      1   739.9    
   ( 22,  1, 55)  ( 22,  1, 55)  ( 22,  1, 87)  ( 22,  1, 87)  ( 22,  1, 87)


 FLOW MODEL IS TRANSIENT
 FLOW MODEL CONTAINS CONSTANT-HEAD CELLS


 MAXIMUM STEPSIZE DURING WHICH ANY PARTICLE CANNOT MOVE MORE THAN ONE CELL
 =  16.24    (WHEN MIN. R.F.=1)  AT K=  18, I=   1, J=  91

 MAXIMUM STEPSIZE WHICH MEETS STABILITY CRITERION OF THE ADVECTION TERM
 (FOR PURE FINITE-DIFFERENCE OPTION, MIXELM=0) 
 =  9.338    (WHEN MIN. R.F.=1)  AT K=  16, I=   1, J=  90


 TOTAL NUMBER OF POINT SOURCES/SINKS PRESENT IN THE FLOW MODEL =    30

 MAXIMUM STEPSIZE WHICH MEETS STABILITY CRITERION OF THE SINK & SOURCE TERM
 =  13.22    (WHEN MIN. R.F.=1)  AT K=  17, I=   1, J=  91

 MAXIMUM STEPSIZE WHICH MEETS STABILITY CRITERION OF THE DISPERSION TERM
 =  4.932    (WHEN MIN. R.F.=1)  AT K=  16, I=   1, J=  89
     1 CALLS TO GCG PACKAGE FOR TRANSPORT TIME STEP 222 IN FLOW TIME STEP   1 STRESS PERIOD   1
     4 TOTAL ITERATIONS
0WARNING: NUMERICAL OSCILLATION ENCOUNTERED
 ONE OR MORE CELL CONCENTRATIONS LESS THAN CRHOREF
 SMALLEST DENSITY =  0.100E+04
 AT CELL (I,J,K) = (   1,  67,   8)

 
 SOLVING FOR HEAD 


     2 CALLS TO PCG ROUTINE FOR TIME STEP   1 IN STRESS PERIOD    1
     5 TOTAL ITERATIONS

 MAXIMUM HEAD CHANGE FOR EACH ITERATION (1 INDICATES THE FIRST INNER ITERATION):

    HEAD CHANGE    HEAD CHANGE    HEAD CHANGE    HEAD CHANGE    HEAD CHANGE 
   LAYER,ROW,COL  LAYER,ROW,COL  LAYER,ROW,COL  LAYER,ROW,COL  LAYER,ROW,COL
 ---------------------------------------------------------------------------
  1 -0.1233E-02  0 -0.1272E-02  0  0.1282E-02  0 -0.5800E-03  1 -0.3262E-03
   ( 23,  1, 71)  ( 10,  1, 12)  ( 10,  1, 12)  ( 11,  1, 60)  ( 11,  1, 69)

 MAXIMUM RESIDUAL FOR EACH ITERATION (1 INDICATES THE FIRST INNER ITERATION):

    RESIDUAL       RESIDUAL       RESIDUAL       RESIDUAL       RESIDUAL    
   LAYER,ROW,COL  LAYER,ROW,COL  LAYER,ROW,COL  LAYER,ROW,COL  LAYER,ROW,COL
 ---------------------------------------------------------------------------
  1 -0.1269E+05  0  -4910.      0  -842.4      0  -815.0      1  -648.6    
   ( 22,  1, 55)  ( 22,  1, 55)  ( 22,  1, 89)  ( 22,  1, 89)  ( 22,  1, 89)


 FLOW MODEL IS TRANSIENT
 FLOW MODEL CONTAINS CONSTANT-HEAD CELLS


 MAXIMUM STEPSIZE DURING WHICH ANY PARTICLE CANNOT MOVE MORE THAN ONE CELL
 =  16.23    (WHEN MIN. R.F.=1)  AT K=  18, I=   1, J=  91

 MAXIMUM STEPSIZE WHICH MEETS STABILITY CRITERION OF THE ADVECTION TERM
 (FOR PURE FINITE-DIFFERENCE OPTION, MIXELM=0) 
 =  9.326    (WHEN MIN. R.F.=1)  AT K=  16, I=   1, J=  90


 TOTAL NUMBER OF POINT SOURCES/SINKS PRESENT IN THE FLOW MODEL =    30

 MAXIMUM STEPSIZE WHICH MEETS STABILITY CRITERION OF THE SINK & SOURCE TERM
 =  13.20    (WHEN MIN. R.F.=1)  AT K=  17, I=   1, J=  91

 MAXIMUM STEPSIZE WHICH MEETS STABILITY CRITERION OF THE DISPERSION TERM
 =  4.925    (WHEN MIN. R.F.=1)  AT K=  16, I=   1, J=  89
     1 CALLS TO GCG PACKAGE FOR TRANSPORT TIME STEP 223 IN FLOW TIME STEP   1 STRESS PERIOD   1
     4 TOTAL ITERATIONS
0WARNING: NUMERICAL OSCILLATION ENCOUNTERED
 ONE OR MORE CELL CONCENTRATIONS LESS THAN CRHOREF
 SMALLEST DENSITY =  0.100E+04
 AT CELL (I,J,K) = (   1,  67,   8)

 
 SOLVING FOR HEAD 


     2 CALLS TO PCG ROUTINE FOR TIME STEP   1 IN STRESS PERIOD    1
     5 TOTAL ITERATIONS

 MAXIMUM HEAD CHANGE FOR EACH ITERATION (1 INDICATES THE FIRST INNER ITERATION):

    HEAD CHANGE    HEAD CHANGE    HEAD CHANGE    HEAD CHANGE    HEAD CHANGE 
   LAYER,ROW,COL  LAYER,ROW,COL  LAYER,ROW,COL  LAYER,ROW,COL  LAYER,ROW,COL
 ---------------------------------------------------------------------------
  1 -0.1239E-02  0 -0.1274E-02  0  0.1281E-02  0 -0.5523E-03  1 -0.3182E-03
   ( 23,  1, 71)  ( 10,  1, 12)  ( 10,  1, 12)  ( 11,  1, 60)  ( 11,  1, 69)

 MAXIMUM RESIDUAL FOR EACH ITERATION (1 INDICATES THE FIRST INNER ITERATION):

    RESIDUAL       RESIDUAL       RESIDUAL       RESIDUAL       RESIDUAL    
   LAYER,ROW,COL  LAYER,ROW,COL  LAYER,ROW,COL  LAYER,ROW,COL  LAYER,ROW,COL
 ---------------------------------------------------------------------------
  1 -0.1262E+05  0  -5103.      0   850.7      0   813.7      1   677.5    
   ( 22,  1, 55)  ( 22,  1, 55)  ( 17,  1, 89)  ( 17,  1, 89)  ( 17,  1, 89)


 FLOW MODEL IS TRANSIENT
 FLOW MODEL CONTAINS CONSTANT-HEAD CELLS


 MAXIMUM STEPSIZE DURING WHICH ANY PARTICLE CANNOT MOVE MORE THAN ONE CELL
 =  16.21    (WHEN MIN. R.F.=1)  AT K=  18, I=   1, J=  91

 MAXIMUM STEPSIZE WHICH MEETS STABILITY CRITERION OF THE ADVECTION TERM
 (FOR PURE FINITE-DIFFERENCE OPTION, MIXELM=0) 
 =  9.318    (WHEN MIN. R.F.=1)  AT K=  16, I=   1, J=  90


 TOTAL NUMBER OF POINT SOURCES/SINKS PRESENT IN THE FLOW MODEL =    30

 MAXIMUM STEPSIZE WHICH MEETS STABILITY CRITERION OF THE SINK & SOURCE TERM
 =  13.19    (WHEN MIN. R.F.=1)  AT K=  17, I=   1, J=  91

 MAXIMUM STEPSIZE WHICH MEETS STABILITY CRITERION OF THE DISPERSION TERM
 =  4.921    (WHEN MIN. R.F.=1)  AT K=  16, I=   1, J=  89
     1 CALLS TO GCG PACKAGE FOR TRANSPORT TIME STEP 224 IN FLOW TIME STEP   1 STRESS PERIOD   1
     4 TOTAL ITERATIONS
0WARNING: NUMERICAL OSCILLATION ENCOUNTERED
 ONE OR MORE CELL CONCENTRATIONS LESS THAN CRHOREF
 SMALLEST DENSITY =  0.100E+04
 AT CELL (I,J,K) = (   1,  67,   8)

 
 SOLVING FOR HEAD 


     2 CALLS TO PCG ROUTINE FOR TIME STEP   1 IN STRESS PERIOD    1
     5 TOTAL ITERATIONS

 MAXIMUM HEAD CHANGE FOR EACH ITERATION (1 INDICATES THE FIRST INNER ITERATION):

    HEAD CHANGE    HEAD CHANGE    HEAD CHANGE    HEAD CHANGE    HEAD CHANGE 
   LAYER,ROW,COL  LAYER,ROW,COL  LAYER,ROW,COL  LAYER,ROW,COL  LAYER,ROW,COL
 ---------------------------------------------------------------------------
  1 -0.1228E-02  0 -0.1268E-02  0  0.1263E-02  0 -0.5378E-03  1 -0.3124E-03
   ( 23,  1, 71)  ( 10,  1, 12)  ( 10,  1, 12)  ( 11,  1, 60)  ( 11,  1, 69)

 MAXIMUM RESIDUAL FOR EACH ITERATION (1 INDICATES THE FIRST INNER ITERATION):

    RESIDUAL       RESIDUAL       RESIDUAL       RESIDUAL       RESIDUAL    
   LAYER,ROW,COL  LAYER,ROW,COL  LAYER,ROW,COL  LAYER,ROW,COL  LAYER,ROW,COL
 ---------------------------------------------------------------------------
  1 -0.1248E+05  0  -4912.      0   1017.      0   888.4      1   705.1    
   ( 22,  1, 55)  ( 22,  1, 55)  ( 19,  1, 88)  ( 19,  1, 88)  ( 19,  1, 88)


 FLOW MODEL IS TRANSIENT
 FLOW MODEL CONTAINS CONSTANT-HEAD CELLS


 MAXIMUM STEPSIZE DURING WHICH ANY PARTICLE CANNOT MOVE MORE THAN ONE CELL
 =  16.18    (WHEN MIN. R.F.=1)  AT K=  18, I=   1, J=  91

 MAXIMUM STEPSIZE WHICH MEETS STABILITY CRITERION OF THE ADVECTION TERM
 (FOR PURE FINITE-DIFFERENCE OPTION, MIXELM=0) 
 =  9.309    (WHEN MIN. R.F.=1)  AT K=  16, I=   1, J=  90


 TOTAL NUMBER OF POINT SOURCES/SINKS PRESENT IN THE FLOW MODEL =    30

 MAXIMUM STEPSIZE WHICH MEETS STABILITY CRITERION OF THE SINK & SOURCE TERM
 =  13.17    (WHEN MIN. R.F.=1)  AT K=  17, I=   1, J=  91

 MAXIMUM STEPSIZE WHICH MEETS STABILITY CRITERION OF THE DISPERSION TERM
 =  4.918    (WHEN MIN. R.F.=1)  AT K=  16, I=   1, J=  89
     1 CALLS TO GCG PACKAGE FOR TRANSPORT TIME STEP 225 IN FLOW TIME STEP   1 STRESS PERIOD   1
     4 TOTAL ITERATIONS
  MAXIMUM CONCENTRATION CHANGES FOR EACH ITERATION:
  MAX. CHANGE LAYER,ROW,COL MAX. CHANGE LAYER,ROW,COL MAX. CHANGE LAYER,ROW,COL MAX. CHANGE LAYER,ROW,COL MAX. CHANGE LAYER,ROW,COL
 ------------------------------------------------------------------------------------------------------------------------------------
   0.3302     ( 16,  1, 90)  0.6976E-03 ( 17,  1, 89)  0.1808E-04 ( 16,  1, 89)  0.1296E-06 ( 17,  1, 88)
0WARNING: NUMERICAL OSCILLATION ENCOUNTERED
 ONE OR MORE CELL CONCENTRATIONS LESS THAN CRHOREF
 SMALLEST DENSITY =  0.100E+04
 AT CELL (I,J,K) = (   1,  67,   8)

 
 SOLVING FOR HEAD 


     2 CALLS TO PCG ROUTINE FOR TIME STEP   1 IN STRESS PERIOD    1
     5 TOTAL ITERATIONS

 MAXIMUM HEAD CHANGE FOR EACH ITERATION (1 INDICATES THE FIRST INNER ITERATION):

    HEAD CHANGE    HEAD CHANGE    HEAD CHANGE    HEAD CHANGE    HEAD CHANGE 
   LAYER,ROW,COL  LAYER,ROW,COL  LAYER,ROW,COL  LAYER,ROW,COL  LAYER,ROW,COL
 ---------------------------------------------------------------------------
  1 -0.1200E-02  0 -0.1225E-02  0  0.1231E-02  0 -0.5463E-03  1 -0.3212E-03
   ( 23,  1, 71)  ( 10,  1, 12)  ( 10,  1, 12)  ( 11,  1, 60)  ( 11,  1, 69)

 MAXIMUM RESIDUAL FOR EACH ITERATION (1 INDICATES THE FIRST INNER ITERATION):

    RESIDUAL       RESIDUAL       RESIDUAL       RESIDUAL       RESIDUAL    
   LAYER,ROW,COL  LAYER,ROW,COL  LAYER,ROW,COL  LAYER,ROW,COL  LAYER,ROW,COL
 ---------------------------------------------------------------------------
  1 -0.1260E+05  0  -4548.      0   924.1      0   854.9      1   668.2    
   ( 22,  1, 55)  ( 22,  1, 55)  ( 22,  1, 87)  ( 22,  1, 87)  ( 22,  1, 87)


 FLOW MODEL IS TRANSIENT
 FLOW MODEL CONTAINS CONSTANT-HEAD CELLS


 MAXIMUM STEPSIZE DURING WHICH ANY PARTICLE CANNOT MOVE MORE THAN ONE CELL
 =  16.17    (WHEN MIN. R.F.=1)  AT K=  18, I=   1, J=  91

 MAXIMUM STEPSIZE WHICH MEETS STABILITY CRITERION OF THE ADVECTION TERM
 (FOR PURE FINITE-DIFFERENCE OPTION, MIXELM=0) 
 =  9.296    (WHEN MIN. R.F.=1)  AT K=  16, I=   1, J=  90


 TOTAL NUMBER OF POINT SOURCES/SINKS PRESENT IN THE FLOW MODEL =    30

 MAXIMUM STEPSIZE WHICH MEETS STABILITY CRITERION OF THE SINK & SOURCE TERM
 =  13.15    (WHEN MIN. R.F.=1)  AT K=  17, I=   1, J=  91

 MAXIMUM STEPSIZE WHICH MEETS STABILITY CRITERION OF THE DISPERSION TERM
 =  4.911    (WHEN MIN. R.F.=1)  AT K=  16, I=   1, J=  89
     1 CALLS TO GCG PACKAGE FOR TRANSPORT TIME STEP 226 IN FLOW TIME STEP   1 STRESS PERIOD   1
     4 TOTAL ITERATIONS
0WARNING: NUMERICAL OSCILLATION ENCOUNTERED
 ONE OR MORE CELL CONCENTRATIONS LESS THAN CRHOREF
 SMALLEST DENSITY =  0.100E+04
 AT CELL (I,J,K) = (   1,  67,   8)

 
 SOLVING FOR HEAD 


     2 CALLS TO PCG ROUTINE FOR TIME STEP   1 IN STRESS PERIOD    1
     5 TOTAL ITERATIONS

 MAXIMUM HEAD CHANGE FOR EACH ITERATION (1 INDICATES THE FIRST INNER ITERATION):

    HEAD CHANGE    HEAD CHANGE    HEAD CHANGE    HEAD CHANGE    HEAD CHANGE 
   LAYER,ROW,COL  LAYER,ROW,COL  LAYER,ROW,COL  LAYER,ROW,COL  LAYER,ROW,COL
 ---------------------------------------------------------------------------
  1 -0.1192E-02  0 -0.1206E-02  0  0.1222E-02  0 -0.5560E-03  1 -0.3155E-03
   ( 23,  1, 71)  ( 10,  1, 12)  ( 10,  1, 12)  ( 11,  1, 60)  ( 11,  1, 69)

 MAXIMUM RESIDUAL FOR EACH ITERATION (1 INDICATES THE FIRST INNER ITERATION):

    RESIDUAL       RESIDUAL       RESIDUAL       RESIDUAL       RESIDUAL    
   LAYER,ROW,COL  LAYER,ROW,COL  LAYER,ROW,COL  LAYER,ROW,COL  LAYER,ROW,COL
 ---------------------------------------------------------------------------
  1 -0.1272E+05  0  -4601.      0   920.7      0   832.3      1   660.0    
   ( 22,  1, 55)  ( 22,  1, 55)  ( 17,  1, 89)  ( 17,  1, 89)  ( 17,  1, 89)


 FLOW MODEL IS TRANSIENT
 FLOW MODEL CONTAINS CONSTANT-HEAD CELLS


 MAXIMUM STEPSIZE DURING WHICH ANY PARTICLE CANNOT MOVE MORE THAN ONE CELL
 =  16.15    (WHEN MIN. R.F.=1)  AT K=  18, I=   1, J=  91

 MAXIMUM STEPSIZE WHICH MEETS STABILITY CRITERION OF THE ADVECTION TERM
 (FOR PURE FINITE-DIFFERENCE OPTION, MIXELM=0) 
 =  9.286    (WHEN MIN. R.F.=1)  AT K=  16, I=   1, J=  90


 TOTAL NUMBER OF POINT SOURCES/SINKS PRESENT IN THE FLOW MODEL =    30

 MAXIMUM STEPSIZE WHICH MEETS STABILITY CRITERION OF THE SINK & SOURCE TERM
 =  13.14    (WHEN MIN. R.F.=1)  AT K=  17, I=   1, J=  91

 MAXIMUM STEPSIZE WHICH MEETS STABILITY CRITERION OF THE DISPERSION TERM
 =  4.905    (WHEN MIN. R.F.=1)  AT K=  16, I=   1, J=  89
     1 CALLS TO GCG PACKAGE FOR TRANSPORT TIME STEP 227 IN FLOW TIME STEP   1 STRESS PERIOD   1
     4 TOTAL ITERATIONS
0WARNING: NUMERICAL OSCILLATION ENCOUNTERED
 ONE OR MORE CELL CONCENTRATIONS LESS THAN CRHOREF
 SMALLEST DENSITY =  0.100E+04
 AT CELL (I,J,K) = (   1,  67,   8)

 
 SOLVING FOR HEAD 


     2 CALLS TO PCG ROUTINE FOR TIME STEP   1 IN STRESS PERIOD    1
     5 TOTAL ITERATIONS

 MAXIMUM HEAD CHANGE FOR EACH ITERATION (1 INDICATES THE FIRST INNER ITERATION):

    HEAD CHANGE    HEAD CHANGE    HEAD CHANGE    HEAD CHANGE    HEAD CHANGE 
   LAYER,ROW,COL  LAYER,ROW,COL  LAYER,ROW,COL  LAYER,ROW,COL  LAYER,ROW,COL
 ---------------------------------------------------------------------------
  1 -0.1199E-02  0 -0.1220E-02  0  0.1224E-02  0 -0.5266E-03  1 -0.2988E-03
   ( 23,  1, 71)  ( 10,  1, 12)  ( 10,  1, 12)  ( 11,  1, 60)  ( 11,  1, 69)

 MAXIMUM RESIDUAL FOR EACH ITERATION (1 INDICATES THE FIRST INNER ITERATION):

    RESIDUAL       RESIDUAL       RESIDUAL       RESIDUAL       RESIDUAL    
   LAYER,ROW,COL  LAYER,ROW,COL  LAYER,ROW,COL  LAYER,ROW,COL  LAYER,ROW,COL
 ---------------------------------------------------------------------------
  1 -0.1248E+05  0  -4655.      0   867.6      0   775.9      1   617.6    
   ( 22,  1, 55)  ( 22,  1, 55)  ( 20,  1, 88)  ( 20,  1, 88)  ( 20,  1, 88)


 FLOW MODEL IS TRANSIENT
 FLOW MODEL CONTAINS CONSTANT-HEAD CELLS


 MAXIMUM STEPSIZE DURING WHICH ANY PARTICLE CANNOT MOVE MORE THAN ONE CELL
 =  16.13    (WHEN MIN. R.F.=1)  AT K=  18, I=   1, J=  91

 MAXIMUM STEPSIZE WHICH MEETS STABILITY CRITERION OF THE ADVECTION TERM
 (FOR PURE FINITE-DIFFERENCE OPTION, MIXELM=0) 
 =  9.280    (WHEN MIN. R.F.=1)  AT K=  16, I=   1, J=  90


 TOTAL NUMBER OF POINT SOURCES/SINKS PRESENT IN THE FLOW MODEL =    30

 MAXIMUM STEPSIZE WHICH MEETS STABILITY CRITERION OF THE SINK & SOURCE TERM
 =  13.13    (WHEN MIN. R.F.=1)  AT K=  17, I=   1, J=  91

 MAXIMUM STEPSIZE WHICH MEETS STABILITY CRITERION OF THE DISPERSION TERM
 =  4.903    (WHEN MIN. R.F.=1)  AT K=  16, I=   1, J=  89
     1 CALLS TO GCG PACKAGE FOR TRANSPORT TIME STEP 228 IN FLOW TIME STEP   1 STRESS PERIOD   1
     4 TOTAL ITERATIONS
0WARNING: NUMERICAL OSCILLATION ENCOUNTERED
 ONE OR MORE CELL CONCENTRATIONS LESS THAN CRHOREF
 SMALLEST DENSITY =  0.100E+04
 AT CELL (I,J,K) = (   1,  67,   8)

 
 SOLVING FOR HEAD 


     2 CALLS TO PCG ROUTINE FOR TIME STEP   1 IN STRESS PERIOD    1
     5 TOTAL ITERATIONS

 MAXIMUM HEAD CHANGE FOR EACH ITERATION (1 INDICATES THE FIRST INNER ITERATION):

    HEAD CHANGE    HEAD CHANGE    HEAD CHANGE    HEAD CHANGE    HEAD CHANGE 
   LAYER,ROW,COL  LAYER,ROW,COL  LAYER,ROW,COL  LAYER,ROW,COL  LAYER,ROW,COL
 ---------------------------------------------------------------------------
  1 -0.1174E-02  0 -0.1196E-02  0  0.1195E-02  0 -0.5147E-03  1 -0.3133E-03
   ( 23,  1, 71)  ( 10,  1, 12)  ( 10,  1, 12)  ( 11,  1, 61)  ( 11,  1, 69)

 MAXIMUM RESIDUAL FOR EACH ITERATION (1 INDICATES THE FIRST INNER ITERATION):

    RESIDUAL       RESIDUAL       RESIDUAL       RESIDUAL       RESIDUAL    
   LAYER,ROW,COL  LAYER,ROW,COL  LAYER,ROW,COL  LAYER,ROW,COL  LAYER,ROW,COL
 ---------------------------------------------------------------------------
  1 -0.1252E+05  0  -4455.      0   983.7      0   916.3      1   739.8    
   ( 22,  1, 55)  ( 22,  1, 55)  ( 18,  1, 88)  ( 22,  1, 87)  ( 22,  1, 87)


 FLOW MODEL IS TRANSIENT
 FLOW MODEL CONTAINS CONSTANT-HEAD CELLS


 MAXIMUM STEPSIZE DURING WHICH ANY PARTICLE CANNOT MOVE MORE THAN ONE CELL
 =  16.10    (WHEN MIN. R.F.=1)  AT K=  18, I=   1, J=  91

 MAXIMUM STEPSIZE WHICH MEETS STABILITY CRITERION OF THE ADVECTION TERM
 (FOR PURE FINITE-DIFFERENCE OPTION, MIXELM=0) 
 =  9.269    (WHEN MIN. R.F.=1)  AT K=  16, I=   1, J=  90


 TOTAL NUMBER OF POINT SOURCES/SINKS PRESENT IN THE FLOW MODEL =    30

 MAXIMUM STEPSIZE WHICH MEETS STABILITY CRITERION OF THE SINK & SOURCE TERM
 =  13.11    (WHEN MIN. R.F.=1)  AT K=  17, I=   1, J=  91

 MAXIMUM STEPSIZE WHICH MEETS STABILITY CRITERION OF THE DISPERSION TERM
 =  4.898    (WHEN MIN. R.F.=1)  AT K=  16, I=   1, J=  89
     1 CALLS TO GCG PACKAGE FOR TRANSPORT TIME STEP 229 IN FLOW TIME STEP   1 STRESS PERIOD   1
     4 TOTAL ITERATIONS
0WARNING: NUMERICAL OSCILLATION ENCOUNTERED
 ONE OR MORE CELL CONCENTRATIONS LESS THAN CRHOREF
 SMALLEST DENSITY =  0.100E+04
 AT CELL (I,J,K) = (   1,  67,   8)

 
 SOLVING FOR HEAD 


     2 CALLS TO PCG ROUTINE FOR TIME STEP   1 IN STRESS PERIOD    1
     5 TOTAL ITERATIONS

 MAXIMUM HEAD CHANGE FOR EACH ITERATION (1 INDICATES THE FIRST INNER ITERATION):

    HEAD CHANGE    HEAD CHANGE    HEAD CHANGE    HEAD CHANGE    HEAD CHANGE 
   LAYER,ROW,COL  LAYER,ROW,COL  LAYER,ROW,COL  LAYER,ROW,COL  LAYER,ROW,COL
 ---------------------------------------------------------------------------
  1 -0.1151E-02  0 -0.1135E-02  0  0.1153E-02  0 -0.5557E-03  1 -0.3047E-03
   ( 23,  1, 71)  ( 10,  1, 12)  ( 10,  1, 12)  ( 11,  1, 60)  ( 11,  1, 69)

 MAXIMUM RESIDUAL FOR EACH ITERATION (1 INDICATES THE FIRST INNER ITERATION):

    RESIDUAL       RESIDUAL       RESIDUAL       RESIDUAL       RESIDUAL    
   LAYER,ROW,COL  LAYER,ROW,COL  LAYER,ROW,COL  LAYER,ROW,COL  LAYER,ROW,COL
 ---------------------------------------------------------------------------
  1 -0.1268E+05  0  -3992.      0  -849.5      0  -831.8      1  -668.4    
   ( 22,  1, 55)  ( 22,  1, 55)  ( 22,  1, 89)  ( 22,  1, 89)  ( 22,  1, 89)


 FLOW MODEL IS TRANSIENT
 FLOW MODEL CONTAINS CONSTANT-HEAD CELLS


 MAXIMUM STEPSIZE DURING WHICH ANY PARTICLE CANNOT MOVE MORE THAN ONE CELL
 =  16.09    (WHEN MIN. R.F.=1)  AT K=  18, I=   1, J=  91

 MAXIMUM STEPSIZE WHICH MEETS STABILITY CRITERION OF THE ADVECTION TERM
 (FOR PURE FINITE-DIFFERENCE OPTION, MIXELM=0) 
 =  9.257    (WHEN MIN. R.F.=1)  AT K=  16, I=   1, J=  90


 TOTAL NUMBER OF POINT SOURCES/SINKS PRESENT IN THE FLOW MODEL =    30

 MAXIMUM STEPSIZE WHICH MEETS STABILITY CRITERION OF THE SINK & SOURCE TERM
 =  13.09    (WHEN MIN. R.F.=1)  AT K=  17, I=   1, J=  91

 MAXIMUM STEPSIZE WHICH MEETS STABILITY CRITERION OF THE DISPERSION TERM
 =  4.891    (WHEN MIN. R.F.=1)  AT K=  16, I=   1, J=  89
     1 CALLS TO GCG PACKAGE FOR TRANSPORT TIME STEP 230 IN FLOW TIME STEP   1 STRESS PERIOD   1
     4 TOTAL ITERATIONS
  MAXIMUM CONCENTRATION CHANGES FOR EACH ITERATION:
  MAX. CHANGE LAYER,ROW,COL MAX. CHANGE LAYER,ROW,COL MAX. CHANGE LAYER,ROW,COL MAX. CHANGE LAYER,ROW,COL MAX. CHANGE LAYER,ROW,COL
 ------------------------------------------------------------------------------------------------------------------------------------
   0.3303     ( 16,  1, 90)  0.6990E-03 ( 17,  1, 89)  0.1815E-04 ( 16,  1, 89)  0.1312E-06 ( 17,  1, 88)



 >>>>>>>>>>>>>>>>>>>>>>>>>>>>>>>>>>>>>>>>>>>>>>>>>>>>>>>FOR COMPONENT NO. 01<<<<<<<<<<<<<<<<<<<<<<<<<<<<<<<<<<<<<<<<<<<<<<<<<<<<<<<


                                            -------------------------------------------
                                                      TRANSPORT STEP NO.  230
                                            -------------------------------------------

 TOTAL ELAPSED TIME SINCE BEGINNING OF SIMULATION =   1623.106    D   
 .....................................................................

                     CUMMULATIVE MASS BUDGETS AT END OF TRANSPORT STEP  230, TIME STEP    1, STRESS PERIOD    1
                     ------------------------------------------------------------------------------------------

                                                             IN                           OUT
                                                      ----------------             ----------------
                               CONSTANT CONCENTRATION:    0.000000                    0.000000    
                                        CONSTANT HEAD:   0.2888733E+08              -0.3208074E+08
                                             RECHARGE:    0.000000                    0.000000    
                                MASS STORAGE (SOLUTE):   0.2534421E+08              -0.2215080E+08
                            ---------------------------------------------------------------------------
                                              [TOTAL]:   0.5423269E+08 KG           -0.5423269E+08 KG  

                                                          NET (IN - OUT):    1.255912    
                                                   DISCREPANCY (PERCENT):   0.2315784E-05
0WARNING: NUMERICAL OSCILLATION ENCOUNTERED
 ONE OR MORE CELL CONCENTRATIONS LESS THAN CRHOREF
 SMALLEST DENSITY =  0.100E+04
 AT CELL (I,J,K) = (   1,  67,   8)

 
 SOLVING FOR HEAD 


     2 CALLS TO PCG ROUTINE FOR TIME STEP   1 IN STRESS PERIOD    1
     5 TOTAL ITERATIONS

 MAXIMUM HEAD CHANGE FOR EACH ITERATION (1 INDICATES THE FIRST INNER ITERATION):

    HEAD CHANGE    HEAD CHANGE    HEAD CHANGE    HEAD CHANGE    HEAD CHANGE 
   LAYER,ROW,COL  LAYER,ROW,COL  LAYER,ROW,COL  LAYER,ROW,COL  LAYER,ROW,COL
 ---------------------------------------------------------------------------
  1 -0.1162E-02  0 -0.1160E-02  0  0.1174E-02  0 -0.5115E-03  1 -0.3020E-03
   ( 23,  1, 71)  ( 10,  1, 12)  ( 10,  1, 12)  ( 11,  1, 60)  ( 11,  1, 69)

 MAXIMUM RESIDUAL FOR EACH ITERATION (1 INDICATES THE FIRST INNER ITERATION):

    RESIDUAL       RESIDUAL       RESIDUAL       RESIDUAL       RESIDUAL    
   LAYER,ROW,COL  LAYER,ROW,COL  LAYER,ROW,COL  LAYER,ROW,COL  LAYER,ROW,COL
 ---------------------------------------------------------------------------
  1 -0.1255E+05  0  -4326.      0   911.4      0   864.3      1   713.0    
   ( 22,  1, 55)  ( 22,  1, 55)  ( 17,  1, 89)  ( 17,  1, 89)  ( 17,  1, 89)


 FLOW MODEL IS TRANSIENT
 FLOW MODEL CONTAINS CONSTANT-HEAD CELLS


 MAXIMUM STEPSIZE DURING WHICH ANY PARTICLE CANNOT MOVE MORE THAN ONE CELL
 =  16.07    (WHEN MIN. R.F.=1)  AT K=  18, I=   1, J=  91

 MAXIMUM STEPSIZE WHICH MEETS STABILITY CRITERION OF THE ADVECTION TERM
 (FOR PURE FINITE-DIFFERENCE OPTION, MIXELM=0) 
 =  9.250    (WHEN MIN. R.F.=1)  AT K=  16, I=   1, J=  90


 TOTAL NUMBER OF POINT SOURCES/SINKS PRESENT IN THE FLOW MODEL =    30

 MAXIMUM STEPSIZE WHICH MEETS STABILITY CRITERION OF THE SINK & SOURCE TERM
 =  13.08    (WHEN MIN. R.F.=1)  AT K=  17, I=   1, J=  91

 MAXIMUM STEPSIZE WHICH MEETS STABILITY CRITERION OF THE DISPERSION TERM
 =  4.888    (WHEN MIN. R.F.=1)  AT K=  16, I=   1, J=  89
     1 CALLS TO GCG PACKAGE FOR TRANSPORT TIME STEP 231 IN FLOW TIME STEP   1 STRESS PERIOD   1
     4 TOTAL ITERATIONS
0WARNING: NUMERICAL OSCILLATION ENCOUNTERED
 ONE OR MORE CELL CONCENTRATIONS LESS THAN CRHOREF
 SMALLEST DENSITY =  0.100E+04
 AT CELL (I,J,K) = (   1,  67,   8)

 
 SOLVING FOR HEAD 


     2 CALLS TO PCG ROUTINE FOR TIME STEP   1 IN STRESS PERIOD    1
     5 TOTAL ITERATIONS

 MAXIMUM HEAD CHANGE FOR EACH ITERATION (1 INDICATES THE FIRST INNER ITERATION):

    HEAD CHANGE    HEAD CHANGE    HEAD CHANGE    HEAD CHANGE    HEAD CHANGE 
   LAYER,ROW,COL  LAYER,ROW,COL  LAYER,ROW,COL  LAYER,ROW,COL  LAYER,ROW,COL
 ---------------------------------------------------------------------------
  1 -0.1157E-02  0 -0.1154E-02  0  0.1157E-02  0 -0.5192E-03  1 -0.3045E-03
   ( 23,  1, 71)  ( 10,  1, 12)  ( 10,  1, 12)  ( 11,  1, 60)  ( 11,  1, 69)

 MAXIMUM RESIDUAL FOR EACH ITERATION (1 INDICATES THE FIRST INNER ITERATION):

    RESIDUAL       RESIDUAL       RESIDUAL       RESIDUAL       RESIDUAL    
   LAYER,ROW,COL  LAYER,ROW,COL  LAYER,ROW,COL  LAYER,ROW,COL  LAYER,ROW,COL
 ---------------------------------------------------------------------------
  1 -0.1233E+05  0  -4126.      0   1046.      0   912.2      1   717.4    
   ( 22,  1, 55)  ( 22,  1, 55)  ( 19,  1, 88)  ( 19,  1, 88)  ( 19,  1, 88)


 FLOW MODEL IS TRANSIENT
 FLOW MODEL CONTAINS CONSTANT-HEAD CELLS


 MAXIMUM STEPSIZE DURING WHICH ANY PARTICLE CANNOT MOVE MORE THAN ONE CELL
 =  16.05    (WHEN MIN. R.F.=1)  AT K=  18, I=   1, J=  91

 MAXIMUM STEPSIZE WHICH MEETS STABILITY CRITERION OF THE ADVECTION TERM
 (FOR PURE FINITE-DIFFERENCE OPTION, MIXELM=0) 
 =  9.242    (WHEN MIN. R.F.=1)  AT K=  16, I=   1, J=  90


 TOTAL NUMBER OF POINT SOURCES/SINKS PRESENT IN THE FLOW MODEL =    30

 MAXIMUM STEPSIZE WHICH MEETS STABILITY CRITERION OF THE SINK & SOURCE TERM
 =  13.06    (WHEN MIN. R.F.=1)  AT K=  17, I=   1, J=  91

 MAXIMUM STEPSIZE WHICH MEETS STABILITY CRITERION OF THE DISPERSION TERM
 =  4.885    (WHEN MIN. R.F.=1)  AT K=  16, I=   1, J=  89
     1 CALLS TO GCG PACKAGE FOR TRANSPORT TIME STEP 232 IN FLOW TIME STEP   1 STRESS PERIOD   1
     4 TOTAL ITERATIONS
0WARNING: NUMERICAL OSCILLATION ENCOUNTERED
 ONE OR MORE CELL CONCENTRATIONS LESS THAN CRHOREF
 SMALLEST DENSITY =  0.100E+04
 AT CELL (I,J,K) = (   1,  67,   8)

 
 SOLVING FOR HEAD 


     2 CALLS TO PCG ROUTINE FOR TIME STEP   1 IN STRESS PERIOD    1
     5 TOTAL ITERATIONS

 MAXIMUM HEAD CHANGE FOR EACH ITERATION (1 INDICATES THE FIRST INNER ITERATION):

    HEAD CHANGE    HEAD CHANGE    HEAD CHANGE    HEAD CHANGE    HEAD CHANGE 
   LAYER,ROW,COL  LAYER,ROW,COL  LAYER,ROW,COL  LAYER,ROW,COL  LAYER,ROW,COL
 ---------------------------------------------------------------------------
  1 -0.1125E-02  0 -0.1080E-02  0  0.1094E-02  0 -0.5318E-03  1 -0.3075E-03
   ( 23,  1, 71)  ( 10,  1, 12)  ( 10,  1, 12)  ( 11,  1, 60)  ( 11,  1, 69)

 MAXIMUM RESIDUAL FOR EACH ITERATION (1 INDICATES THE FIRST INNER ITERATION):

    RESIDUAL       RESIDUAL       RESIDUAL       RESIDUAL       RESIDUAL    
   LAYER,ROW,COL  LAYER,ROW,COL  LAYER,ROW,COL  LAYER,ROW,COL  LAYER,ROW,COL
 ---------------------------------------------------------------------------
  1 -0.1247E+05  0  -3553.      0   962.7      0   899.4      1   705.2    
   ( 22,  1, 55)  ( 22,  1, 55)  ( 22,  1, 87)  ( 22,  1, 87)  ( 22,  1, 87)


 FLOW MODEL IS TRANSIENT
 FLOW MODEL CONTAINS CONSTANT-HEAD CELLS


 MAXIMUM STEPSIZE DURING WHICH ANY PARTICLE CANNOT MOVE MORE THAN ONE CELL
 =  16.03    (WHEN MIN. R.F.=1)  AT K=  18, I=   1, J=  91

 MAXIMUM STEPSIZE WHICH MEETS STABILITY CRITERION OF THE ADVECTION TERM
 (FOR PURE FINITE-DIFFERENCE OPTION, MIXELM=0) 
 =  9.231    (WHEN MIN. R.F.=1)  AT K=  16, I=   1, J=  90


 TOTAL NUMBER OF POINT SOURCES/SINKS PRESENT IN THE FLOW MODEL =    30

 MAXIMUM STEPSIZE WHICH MEETS STABILITY CRITERION OF THE SINK & SOURCE TERM
 =  13.05    (WHEN MIN. R.F.=1)  AT K=  17, I=   1, J=  91

 MAXIMUM STEPSIZE WHICH MEETS STABILITY CRITERION OF THE DISPERSION TERM
 =  4.879    (WHEN MIN. R.F.=1)  AT K=  16, I=   1, J=  89
     1 CALLS TO GCG PACKAGE FOR TRANSPORT TIME STEP 233 IN FLOW TIME STEP   1 STRESS PERIOD   1
     4 TOTAL ITERATIONS
0WARNING: NUMERICAL OSCILLATION ENCOUNTERED
 ONE OR MORE CELL CONCENTRATIONS LESS THAN CRHOREF
 SMALLEST DENSITY =  0.100E+04
 AT CELL (I,J,K) = (   1,  67,   8)

 
 SOLVING FOR HEAD 


     2 CALLS TO PCG ROUTINE FOR TIME STEP   1 IN STRESS PERIOD    1
     5 TOTAL ITERATIONS

 MAXIMUM HEAD CHANGE FOR EACH ITERATION (1 INDICATES THE FIRST INNER ITERATION):

    HEAD CHANGE    HEAD CHANGE    HEAD CHANGE    HEAD CHANGE    HEAD CHANGE 
   LAYER,ROW,COL  LAYER,ROW,COL  LAYER,ROW,COL  LAYER,ROW,COL  LAYER,ROW,COL
 ---------------------------------------------------------------------------
  1 -0.1121E-02  0 -0.1062E-02  0  0.1087E-02  0 -0.5244E-03  1 -0.2979E-03
   ( 23,  1, 71)  ( 10,  1, 12)  ( 10,  1, 12)  ( 11,  1, 60)  ( 11,  1, 69)

 MAXIMUM RESIDUAL FOR EACH ITERATION (1 INDICATES THE FIRST INNER ITERATION):

    RESIDUAL       RESIDUAL       RESIDUAL       RESIDUAL       RESIDUAL    
   LAYER,ROW,COL  LAYER,ROW,COL  LAYER,ROW,COL  LAYER,ROW,COL  LAYER,ROW,COL
 ---------------------------------------------------------------------------
  1 -0.1253E+05  0  -3538.      0   895.7      0   816.1      1   659.3    
   ( 22,  1, 55)  ( 22,  1, 55)  ( 17,  1, 89)  ( 22,  1, 88)  ( 22,  1, 88)


 FLOW MODEL IS TRANSIENT
 FLOW MODEL CONTAINS CONSTANT-HEAD CELLS


 MAXIMUM STEPSIZE DURING WHICH ANY PARTICLE CANNOT MOVE MORE THAN ONE CELL
 =  16.02    (WHEN MIN. R.F.=1)  AT K=  18, I=   1, J=  91

 MAXIMUM STEPSIZE WHICH MEETS STABILITY CRITERION OF THE ADVECTION TERM
 (FOR PURE FINITE-DIFFERENCE OPTION, MIXELM=0) 
 =  9.221    (WHEN MIN. R.F.=1)  AT K=  16, I=   1, J=  90


 TOTAL NUMBER OF POINT SOURCES/SINKS PRESENT IN THE FLOW MODEL =    30

 MAXIMUM STEPSIZE WHICH MEETS STABILITY CRITERION OF THE SINK & SOURCE TERM
 =  13.04    (WHEN MIN. R.F.=1)  AT K=  17, I=   1, J=  91

 MAXIMUM STEPSIZE WHICH MEETS STABILITY CRITERION OF THE DISPERSION TERM
 =  4.874    (WHEN MIN. R.F.=1)  AT K=  16, I=   1, J=  89
     1 CALLS TO GCG PACKAGE FOR TRANSPORT TIME STEP 234 IN FLOW TIME STEP   1 STRESS PERIOD   1
     4 TOTAL ITERATIONS
0WARNING: NUMERICAL OSCILLATION ENCOUNTERED
 ONE OR MORE CELL CONCENTRATIONS LESS THAN CRHOREF
 SMALLEST DENSITY =  0.100E+04
 AT CELL (I,J,K) = (   1,  67,   8)

 
 SOLVING FOR HEAD 


     2 CALLS TO PCG ROUTINE FOR TIME STEP   1 IN STRESS PERIOD    1
     5 TOTAL ITERATIONS

 MAXIMUM HEAD CHANGE FOR EACH ITERATION (1 INDICATES THE FIRST INNER ITERATION):

    HEAD CHANGE    HEAD CHANGE    HEAD CHANGE    HEAD CHANGE    HEAD CHANGE 
   LAYER,ROW,COL  LAYER,ROW,COL  LAYER,ROW,COL  LAYER,ROW,COL  LAYER,ROW,COL
 ---------------------------------------------------------------------------
  1 -0.1138E-02  0 -0.1098E-02  0  0.1111E-02  0 -0.5001E-03  1 -0.2945E-03
   ( 23,  1, 71)  ( 10,  1, 12)  ( 10,  1, 12)  ( 11,  1, 60)  ( 11,  1, 69)

 MAXIMUM RESIDUAL FOR EACH ITERATION (1 INDICATES THE FIRST INNER ITERATION):

    RESIDUAL       RESIDUAL       RESIDUAL       RESIDUAL       RESIDUAL    
   LAYER,ROW,COL  LAYER,ROW,COL  LAYER,ROW,COL  LAYER,ROW,COL  LAYER,ROW,COL
 ---------------------------------------------------------------------------
  1 -0.1217E+05  0  -3715.      0   901.5      0   810.4      1   640.0    
   ( 22,  1, 55)  ( 22,  1, 55)  ( 20,  1, 88)  ( 20,  1, 88)  ( 20,  1, 88)


 FLOW MODEL IS TRANSIENT
 FLOW MODEL CONTAINS CONSTANT-HEAD CELLS


 MAXIMUM STEPSIZE DURING WHICH ANY PARTICLE CANNOT MOVE MORE THAN ONE CELL
 =  16.00    (WHEN MIN. R.F.=1)  AT K=  18, I=   1, J=  91

 MAXIMUM STEPSIZE WHICH MEETS STABILITY CRITERION OF THE ADVECTION TERM
 (FOR PURE FINITE-DIFFERENCE OPTION, MIXELM=0) 
 =  9.216    (WHEN MIN. R.F.=1)  AT K=  16, I=   1, J=  90


 TOTAL NUMBER OF POINT SOURCES/SINKS PRESENT IN THE FLOW MODEL =    30

 MAXIMUM STEPSIZE WHICH MEETS STABILITY CRITERION OF THE SINK & SOURCE TERM
 =  13.02    (WHEN MIN. R.F.=1)  AT K=  17, I=   1, J=  91

 MAXIMUM STEPSIZE WHICH MEETS STABILITY CRITERION OF THE DISPERSION TERM
 =  4.872    (WHEN MIN. R.F.=1)  AT K=  16, I=   1, J=  89
     1 CALLS TO GCG PACKAGE FOR TRANSPORT TIME STEP 235 IN FLOW TIME STEP   1 STRESS PERIOD   1
     4 TOTAL ITERATIONS
  MAXIMUM CONCENTRATION CHANGES FOR EACH ITERATION:
  MAX. CHANGE LAYER,ROW,COL MAX. CHANGE LAYER,ROW,COL MAX. CHANGE LAYER,ROW,COL MAX. CHANGE LAYER,ROW,COL MAX. CHANGE LAYER,ROW,COL
 ------------------------------------------------------------------------------------------------------------------------------------
   0.3301     ( 16,  1, 90)  0.6948E-03 ( 17,  1, 89)  0.1807E-04 ( 16,  1, 89)  0.1295E-06 ( 17,  1, 88)
0WARNING: NUMERICAL OSCILLATION ENCOUNTERED
 ONE OR MORE CELL CONCENTRATIONS LESS THAN CRHOREF
 SMALLEST DENSITY =  0.100E+04
 AT CELL (I,J,K) = (   1,  67,   8)

 
 SOLVING FOR HEAD 


     2 CALLS TO PCG ROUTINE FOR TIME STEP   1 IN STRESS PERIOD    1
     5 TOTAL ITERATIONS

 MAXIMUM HEAD CHANGE FOR EACH ITERATION (1 INDICATES THE FIRST INNER ITERATION):

    HEAD CHANGE    HEAD CHANGE    HEAD CHANGE    HEAD CHANGE    HEAD CHANGE 
   LAYER,ROW,COL  LAYER,ROW,COL  LAYER,ROW,COL  LAYER,ROW,COL  LAYER,ROW,COL
 ---------------------------------------------------------------------------
  1 -0.1112E-02  0 -0.1049E-02  0  0.1059E-02  0 -0.5122E-03  1 -0.3069E-03
   ( 23,  1, 71)  ( 10,  1, 12)  ( 10,  1, 12)  ( 11,  1, 60)  ( 11,  1, 69)

 MAXIMUM RESIDUAL FOR EACH ITERATION (1 INDICATES THE FIRST INNER ITERATION):

    RESIDUAL       RESIDUAL       RESIDUAL       RESIDUAL       RESIDUAL    
   LAYER,ROW,COL  LAYER,ROW,COL  LAYER,ROW,COL  LAYER,ROW,COL  LAYER,ROW,COL
 ---------------------------------------------------------------------------
  1 -0.1220E+05  0  -3334.      0  -1021.      0  -956.7      1  -740.9    
   ( 22,  1, 55)  ( 22,  1, 55)  ( 22,  1, 88)  ( 22,  1, 88)  ( 22,  1, 88)


 FLOW MODEL IS TRANSIENT
 FLOW MODEL CONTAINS CONSTANT-HEAD CELLS


 MAXIMUM STEPSIZE DURING WHICH ANY PARTICLE CANNOT MOVE MORE THAN ONE CELL
 =  15.98    (WHEN MIN. R.F.=1)  AT K=  18, I=   1, J=  91

 MAXIMUM STEPSIZE WHICH MEETS STABILITY CRITERION OF THE ADVECTION TERM
 (FOR PURE FINITE-DIFFERENCE OPTION, MIXELM=0) 
 =  9.206    (WHEN MIN. R.F.=1)  AT K=  16, I=   1, J=  90


 TOTAL NUMBER OF POINT SOURCES/SINKS PRESENT IN THE FLOW MODEL =    30

 MAXIMUM STEPSIZE WHICH MEETS STABILITY CRITERION OF THE SINK & SOURCE TERM
 =  13.00    (WHEN MIN. R.F.=1)  AT K=  17, I=   1, J=  91

 MAXIMUM STEPSIZE WHICH MEETS STABILITY CRITERION OF THE DISPERSION TERM
 =  4.867    (WHEN MIN. R.F.=1)  AT K=  16, I=   1, J=  89
     1 CALLS TO GCG PACKAGE FOR TRANSPORT TIME STEP 236 IN FLOW TIME STEP   1 STRESS PERIOD   1
     4 TOTAL ITERATIONS
0WARNING: NUMERICAL OSCILLATION ENCOUNTERED
 ONE OR MORE CELL CONCENTRATIONS LESS THAN CRHOREF
 SMALLEST DENSITY =  0.100E+04
 AT CELL (I,J,K) = (   1,  67,   8)

 
 SOLVING FOR HEAD 


     2 CALLS TO PCG ROUTINE FOR TIME STEP   1 IN STRESS PERIOD    1
     4 TOTAL ITERATIONS

 MAXIMUM HEAD CHANGE FOR EACH ITERATION (1 INDICATES THE FIRST INNER ITERATION):

    HEAD CHANGE    HEAD CHANGE    HEAD CHANGE    HEAD CHANGE    HEAD CHANGE 
   LAYER,ROW,COL  LAYER,ROW,COL  LAYER,ROW,COL  LAYER,ROW,COL  LAYER,ROW,COL
 ---------------------------------------------------------------------------
  1 -0.1089E-02  0  0.1069E-02  0  0.9742E-03  1 -0.5153E-03
   ( 23,  1, 71)  ( 11,  1, 61)  ( 10,  1, 12)  ( 11,  1, 60)

 MAXIMUM RESIDUAL FOR EACH ITERATION (1 INDICATES THE FIRST INNER ITERATION):

    RESIDUAL       RESIDUAL       RESIDUAL       RESIDUAL       RESIDUAL    
   LAYER,ROW,COL  LAYER,ROW,COL  LAYER,ROW,COL  LAYER,ROW,COL  LAYER,ROW,COL
 ---------------------------------------------------------------------------
  1 -0.1232E+05  0  -2659.      0  -829.8      1  -773.3    
   ( 22,  1, 55)  ( 22,  1, 55)  ( 22,  1, 89)  ( 22,  1, 89)


 FLOW MODEL IS TRANSIENT
 FLOW MODEL CONTAINS CONSTANT-HEAD CELLS


 MAXIMUM STEPSIZE DURING WHICH ANY PARTICLE CANNOT MOVE MORE THAN ONE CELL
 =  15.97    (WHEN MIN. R.F.=1)  AT K=  18, I=   1, J=  91

 MAXIMUM STEPSIZE WHICH MEETS STABILITY CRITERION OF THE ADVECTION TERM
 (FOR PURE FINITE-DIFFERENCE OPTION, MIXELM=0) 
 =  9.194    (WHEN MIN. R.F.=1)  AT K=  16, I=   1, J=  90


 TOTAL NUMBER OF POINT SOURCES/SINKS PRESENT IN THE FLOW MODEL =    30

 MAXIMUM STEPSIZE WHICH MEETS STABILITY CRITERION OF THE SINK & SOURCE TERM
 =  12.99    (WHEN MIN. R.F.=1)  AT K=  17, I=   1, J=  91

 MAXIMUM STEPSIZE WHICH MEETS STABILITY CRITERION OF THE DISPERSION TERM
 =  4.861    (WHEN MIN. R.F.=1)  AT K=  16, I=   1, J=  89
     1 CALLS TO GCG PACKAGE FOR TRANSPORT TIME STEP 237 IN FLOW TIME STEP   1 STRESS PERIOD   1
     4 TOTAL ITERATIONS
0WARNING: NUMERICAL OSCILLATION ENCOUNTERED
 ONE OR MORE CELL CONCENTRATIONS LESS THAN CRHOREF
 SMALLEST DENSITY =  0.100E+04
 AT CELL (I,J,K) = (   1,  67,   8)

 
 SOLVING FOR HEAD 


     2 CALLS TO PCG ROUTINE FOR TIME STEP   1 IN STRESS PERIOD    1
     5 TOTAL ITERATIONS

 MAXIMUM HEAD CHANGE FOR EACH ITERATION (1 INDICATES THE FIRST INNER ITERATION):

    HEAD CHANGE    HEAD CHANGE    HEAD CHANGE    HEAD CHANGE    HEAD CHANGE 
   LAYER,ROW,COL  LAYER,ROW,COL  LAYER,ROW,COL  LAYER,ROW,COL  LAYER,ROW,COL
 ---------------------------------------------------------------------------
  1  0.1550E-02  0 -0.1700E-02  0  0.1188E-02  0 -0.2550E-03  1 -0.1672E-03
   ( 10,  1, 12)  ( 10,  1, 12)  ( 11,  1, 66)  ( 11,  1, 65)  ( 11,  1, 70)

 MAXIMUM RESIDUAL FOR EACH ITERATION (1 INDICATES THE FIRST INNER ITERATION):

    RESIDUAL       RESIDUAL       RESIDUAL       RESIDUAL       RESIDUAL    
   LAYER,ROW,COL  LAYER,ROW,COL  LAYER,ROW,COL  LAYER,ROW,COL  LAYER,ROW,COL
 ---------------------------------------------------------------------------
  1 -0.2071E+05  0 -0.1051E+05  0   1064.      0   971.8      1   766.3    
   ( 22,  1, 55)  ( 22,  1, 55)  ( 17,  1, 89)  ( 17,  1, 89)  ( 17,  1, 89)


 FLOW MODEL IS TRANSIENT
 FLOW MODEL CONTAINS CONSTANT-HEAD CELLS


 MAXIMUM STEPSIZE DURING WHICH ANY PARTICLE CANNOT MOVE MORE THAN ONE CELL
 =  15.95    (WHEN MIN. R.F.=1)  AT K=  18, I=   1, J=  91

 MAXIMUM STEPSIZE WHICH MEETS STABILITY CRITERION OF THE ADVECTION TERM
 (FOR PURE FINITE-DIFFERENCE OPTION, MIXELM=0) 
 =  9.188    (WHEN MIN. R.F.=1)  AT K=  16, I=   1, J=  90


 TOTAL NUMBER OF POINT SOURCES/SINKS PRESENT IN THE FLOW MODEL =    30

 MAXIMUM STEPSIZE WHICH MEETS STABILITY CRITERION OF THE SINK & SOURCE TERM
 =  12.98    (WHEN MIN. R.F.=1)  AT K=  17, I=   1, J=  91

 MAXIMUM STEPSIZE WHICH MEETS STABILITY CRITERION OF THE DISPERSION TERM
 =  4.858    (WHEN MIN. R.F.=1)  AT K=  16, I=   1, J=  89
     1 CALLS TO GCG PACKAGE FOR TRANSPORT TIME STEP 238 IN FLOW TIME STEP   1 STRESS PERIOD   1
     4 TOTAL ITERATIONS
0WARNING: NUMERICAL OSCILLATION ENCOUNTERED
 ONE OR MORE CELL CONCENTRATIONS LESS THAN CRHOREF
 SMALLEST DENSITY =  0.100E+04
 AT CELL (I,J,K) = (   1,  67,   8)

 
 SOLVING FOR HEAD 


     2 CALLS TO PCG ROUTINE FOR TIME STEP   1 IN STRESS PERIOD    1
     5 TOTAL ITERATIONS

 MAXIMUM HEAD CHANGE FOR EACH ITERATION (1 INDICATES THE FIRST INNER ITERATION):

    HEAD CHANGE    HEAD CHANGE    HEAD CHANGE    HEAD CHANGE    HEAD CHANGE 
   LAYER,ROW,COL  LAYER,ROW,COL  LAYER,ROW,COL  LAYER,ROW,COL  LAYER,ROW,COL
 ---------------------------------------------------------------------------
  1 -0.1111E-02  0 -0.1190E-02  0  0.1161E-02  0 -0.5090E-03  1 -0.2727E-03
   ( 23,  1, 71)  ( 10,  1, 12)  ( 10,  1, 12)  ( 11,  1, 64)  ( 11,  1, 69)

 MAXIMUM RESIDUAL FOR EACH ITERATION (1 INDICATES THE FIRST INNER ITERATION):

    RESIDUAL       RESIDUAL       RESIDUAL       RESIDUAL       RESIDUAL    
   LAYER,ROW,COL  LAYER,ROW,COL  LAYER,ROW,COL  LAYER,ROW,COL  LAYER,ROW,COL
 ---------------------------------------------------------------------------
  1 -0.1196E+05  0  -5201.      0   1076.      0   925.4      1   711.7    
   ( 22,  1, 55)  ( 22,  1, 55)  ( 19,  1, 88)  ( 19,  1, 88)  ( 19,  1, 88)


 FLOW MODEL IS TRANSIENT
 FLOW MODEL CONTAINS CONSTANT-HEAD CELLS


 MAXIMUM STEPSIZE DURING WHICH ANY PARTICLE CANNOT MOVE MORE THAN ONE CELL
 =  15.92    (WHEN MIN. R.F.=1)  AT K=  18, I=   1, J=  91

 MAXIMUM STEPSIZE WHICH MEETS STABILITY CRITERION OF THE ADVECTION TERM
 (FOR PURE FINITE-DIFFERENCE OPTION, MIXELM=0) 
 =  9.181    (WHEN MIN. R.F.=1)  AT K=  16, I=   1, J=  90


 TOTAL NUMBER OF POINT SOURCES/SINKS PRESENT IN THE FLOW MODEL =    30

 MAXIMUM STEPSIZE WHICH MEETS STABILITY CRITERION OF THE SINK & SOURCE TERM
 =  12.96    (WHEN MIN. R.F.=1)  AT K=  17, I=   1, J=  91

 MAXIMUM STEPSIZE WHICH MEETS STABILITY CRITERION OF THE DISPERSION TERM
 =  4.856    (WHEN MIN. R.F.=1)  AT K=  16, I=   1, J=  89
     1 CALLS TO GCG PACKAGE FOR TRANSPORT TIME STEP 239 IN FLOW TIME STEP   1 STRESS PERIOD   1
     4 TOTAL ITERATIONS
0WARNING: NUMERICAL OSCILLATION ENCOUNTERED
 ONE OR MORE CELL CONCENTRATIONS LESS THAN CRHOREF
 SMALLEST DENSITY =  0.100E+04
 AT CELL (I,J,K) = (   1,  67,   8)

 
 SOLVING FOR HEAD 


     2 CALLS TO PCG ROUTINE FOR TIME STEP   1 IN STRESS PERIOD    1
     3 TOTAL ITERATIONS

 MAXIMUM HEAD CHANGE FOR EACH ITERATION (1 INDICATES THE FIRST INNER ITERATION):

    HEAD CHANGE    HEAD CHANGE    HEAD CHANGE    HEAD CHANGE    HEAD CHANGE 
   LAYER,ROW,COL  LAYER,ROW,COL  LAYER,ROW,COL  LAYER,ROW,COL  LAYER,ROW,COL
 ---------------------------------------------------------------------------
  1 -0.1074E-02  0 -0.9710E-03  1  0.9845E-03
   ( 23,  1, 71)  (  9,  1, 12)  ( 10,  1, 12)

 MAXIMUM RESIDUAL FOR EACH ITERATION (1 INDICATES THE FIRST INNER ITERATION):

    RESIDUAL       RESIDUAL       RESIDUAL       RESIDUAL       RESIDUAL    
   LAYER,ROW,COL  LAYER,ROW,COL  LAYER,ROW,COL  LAYER,ROW,COL  LAYER,ROW,COL
 ---------------------------------------------------------------------------
  1 -0.1193E+05  0  -2851.      1  -2857.    
   ( 22,  1, 55)  ( 22,  1, 55)  ( 22,  1, 55)


 FLOW MODEL IS TRANSIENT
 FLOW MODEL CONTAINS CONSTANT-HEAD CELLS


 MAXIMUM STEPSIZE DURING WHICH ANY PARTICLE CANNOT MOVE MORE THAN ONE CELL
 =  15.91    (WHEN MIN. R.F.=1)  AT K=  18, I=   1, J=  91

 MAXIMUM STEPSIZE WHICH MEETS STABILITY CRITERION OF THE ADVECTION TERM
 (FOR PURE FINITE-DIFFERENCE OPTION, MIXELM=0) 
 =  9.163    (WHEN MIN. R.F.=1)  AT K=  16, I=   1, J=  90


 TOTAL NUMBER OF POINT SOURCES/SINKS PRESENT IN THE FLOW MODEL =    30

 MAXIMUM STEPSIZE WHICH MEETS STABILITY CRITERION OF THE SINK & SOURCE TERM
 =  12.95    (WHEN MIN. R.F.=1)  AT K=  17, I=   1, J=  91

 MAXIMUM STEPSIZE WHICH MEETS STABILITY CRITERION OF THE DISPERSION TERM
 =  4.851    (WHEN MIN. R.F.=1)  AT K=  16, I=   1, J=  89
     1 CALLS TO GCG PACKAGE FOR TRANSPORT TIME STEP 240 IN FLOW TIME STEP   1 STRESS PERIOD   1
     4 TOTAL ITERATIONS
  MAXIMUM CONCENTRATION CHANGES FOR EACH ITERATION:
  MAX. CHANGE LAYER,ROW,COL MAX. CHANGE LAYER,ROW,COL MAX. CHANGE LAYER,ROW,COL MAX. CHANGE LAYER,ROW,COL MAX. CHANGE LAYER,ROW,COL
 ------------------------------------------------------------------------------------------------------------------------------------
   0.3304     ( 16,  1, 90)  0.6926E-03 ( 17,  1, 89)  0.1800E-04 ( 16,  1, 89)  0.1306E-06 ( 17,  1, 88)



 >>>>>>>>>>>>>>>>>>>>>>>>>>>>>>>>>>>>>>>>>>>>>>>>>>>>>>>FOR COMPONENT NO. 01<<<<<<<<<<<<<<<<<<<<<<<<<<<<<<<<<<<<<<<<<<<<<<<<<<<<<<<


                                            -------------------------------------------
                                                      TRANSPORT STEP NO.  240
                                            -------------------------------------------

 TOTAL ELAPSED TIME SINCE BEGINNING OF SIMULATION =   1669.199    D   
 .....................................................................

                     CUMMULATIVE MASS BUDGETS AT END OF TRANSPORT STEP  240, TIME STEP    1, STRESS PERIOD    1
                     ------------------------------------------------------------------------------------------

                                                             IN                           OUT
                                                      ----------------             ----------------
                               CONSTANT CONCENTRATION:    0.000000                    0.000000    
                                        CONSTANT HEAD:   0.3064532E+08              -0.3380949E+08
                                             RECHARGE:    0.000000                    0.000000    
                                MASS STORAGE (SOLUTE):   0.2545035E+08              -0.2228618E+08
                            ---------------------------------------------------------------------------
                                              [TOTAL]:   0.5609683E+08 KG           -0.5609683E+08 KG  

                                                          NET (IN - OUT):    1.294283    
                                                   DISCREPANCY (PERCENT):   0.2307229E-05
0WARNING: NUMERICAL OSCILLATION ENCOUNTERED
 ONE OR MORE CELL CONCENTRATIONS LESS THAN CRHOREF
 SMALLEST DENSITY =  0.100E+04
 AT CELL (I,J,K) = (   1,  67,   8)

 
 SOLVING FOR HEAD 


     2 CALLS TO PCG ROUTINE FOR TIME STEP   1 IN STRESS PERIOD    1
     5 TOTAL ITERATIONS

 MAXIMUM HEAD CHANGE FOR EACH ITERATION (1 INDICATES THE FIRST INNER ITERATION):

    HEAD CHANGE    HEAD CHANGE    HEAD CHANGE    HEAD CHANGE    HEAD CHANGE 
   LAYER,ROW,COL  LAYER,ROW,COL  LAYER,ROW,COL  LAYER,ROW,COL  LAYER,ROW,COL
 ---------------------------------------------------------------------------
  1 -0.1853E-02  0  0.1504E-02  0  0.1470E-02  0  0.3673E-03  1  0.2495E-03
   ( 11,  1, 64)  ( 10,  1, 12)  ( 11,  1, 63)  ( 11,  1, 69)  ( 11,  1, 70)

 MAXIMUM RESIDUAL FOR EACH ITERATION (1 INDICATES THE FIRST INNER ITERATION):

    RESIDUAL       RESIDUAL       RESIDUAL       RESIDUAL       RESIDUAL    
   LAYER,ROW,COL  LAYER,ROW,COL  LAYER,ROW,COL  LAYER,ROW,COL  LAYER,ROW,COL
 ---------------------------------------------------------------------------
  1  -7800.      0  -3297.      0  -964.9      0  -599.1      1  -419.2    
   ( 22,  1, 55)  ( 22,  1, 55)  ( 19,  1, 86)  ( 19,  1, 86)  ( 19,  1, 86)


 FLOW MODEL IS TRANSIENT
 FLOW MODEL CONTAINS CONSTANT-HEAD CELLS


 MAXIMUM STEPSIZE DURING WHICH ANY PARTICLE CANNOT MOVE MORE THAN ONE CELL
 =  15.88    (WHEN MIN. R.F.=1)  AT K=  18, I=   1, J=  91

 MAXIMUM STEPSIZE WHICH MEETS STABILITY CRITERION OF THE ADVECTION TERM
 (FOR PURE FINITE-DIFFERENCE OPTION, MIXELM=0) 
 =  9.153    (WHEN MIN. R.F.=1)  AT K=  16, I=   1, J=  90


 TOTAL NUMBER OF POINT SOURCES/SINKS PRESENT IN THE FLOW MODEL =    30

 MAXIMUM STEPSIZE WHICH MEETS STABILITY CRITERION OF THE SINK & SOURCE TERM
 =  12.93    (WHEN MIN. R.F.=1)  AT K=  17, I=   1, J=  91

 MAXIMUM STEPSIZE WHICH MEETS STABILITY CRITERION OF THE DISPERSION TERM
 =  4.847    (WHEN MIN. R.F.=1)  AT K=  16, I=   1, J=  89
     1 CALLS TO GCG PACKAGE FOR TRANSPORT TIME STEP 241 IN FLOW TIME STEP   1 STRESS PERIOD   1
     4 TOTAL ITERATIONS
0WARNING: NUMERICAL OSCILLATION ENCOUNTERED
 ONE OR MORE CELL CONCENTRATIONS LESS THAN CRHOREF
 SMALLEST DENSITY =  0.100E+04
 AT CELL (I,J,K) = (   1,  67,   8)

 
 SOLVING FOR HEAD 


     2 CALLS TO PCG ROUTINE FOR TIME STEP   1 IN STRESS PERIOD    1
     5 TOTAL ITERATIONS

 MAXIMUM HEAD CHANGE FOR EACH ITERATION (1 INDICATES THE FIRST INNER ITERATION):

    HEAD CHANGE    HEAD CHANGE    HEAD CHANGE    HEAD CHANGE    HEAD CHANGE 
   LAYER,ROW,COL  LAYER,ROW,COL  LAYER,ROW,COL  LAYER,ROW,COL  LAYER,ROW,COL
 ---------------------------------------------------------------------------
  1 -0.1063E-02  0 -0.1084E-02  0  0.1081E-02  0 -0.2942E-03  1 -0.1433E-03
   ( 23,  1, 70)  ( 10,  1, 12)  ( 10,  1, 12)  ( 11,  1, 69)  ( 11,  1, 69)

 MAXIMUM RESIDUAL FOR EACH ITERATION (1 INDICATES THE FIRST INNER ITERATION):

    RESIDUAL       RESIDUAL       RESIDUAL       RESIDUAL       RESIDUAL    
   LAYER,ROW,COL  LAYER,ROW,COL  LAYER,ROW,COL  LAYER,ROW,COL  LAYER,ROW,COL
 ---------------------------------------------------------------------------
  1 -0.1152E+05  0  -3829.      0  -669.9      0   581.3      1   489.2    
   ( 22,  1, 55)  ( 22,  1, 55)  ( 18,  1, 86)  ( 21,  1, 86)  ( 21,  1, 86)


 FLOW MODEL IS TRANSIENT
 FLOW MODEL CONTAINS CONSTANT-HEAD CELLS


 MAXIMUM STEPSIZE DURING WHICH ANY PARTICLE CANNOT MOVE MORE THAN ONE CELL
 =  15.88    (WHEN MIN. R.F.=1)  AT K=  18, I=   1, J=  91

 MAXIMUM STEPSIZE WHICH MEETS STABILITY CRITERION OF THE ADVECTION TERM
 (FOR PURE FINITE-DIFFERENCE OPTION, MIXELM=0) 
 =  9.148    (WHEN MIN. R.F.=1)  AT K=  16, I=   1, J=  90


 TOTAL NUMBER OF POINT SOURCES/SINKS PRESENT IN THE FLOW MODEL =    30

 MAXIMUM STEPSIZE WHICH MEETS STABILITY CRITERION OF THE SINK & SOURCE TERM
 =  12.92    (WHEN MIN. R.F.=1)  AT K=  17, I=   1, J=  91

 MAXIMUM STEPSIZE WHICH MEETS STABILITY CRITERION OF THE DISPERSION TERM
 =  4.843    (WHEN MIN. R.F.=1)  AT K=  16, I=   1, J=  89
     1 CALLS TO GCG PACKAGE FOR TRANSPORT TIME STEP 242 IN FLOW TIME STEP   1 STRESS PERIOD   1
     4 TOTAL ITERATIONS
0WARNING: NUMERICAL OSCILLATION ENCOUNTERED
 ONE OR MORE CELL CONCENTRATIONS LESS THAN CRHOREF
 SMALLEST DENSITY =  0.100E+04
 AT CELL (I,J,K) = (   1,  67,   8)

 
 SOLVING FOR HEAD 


     2 CALLS TO PCG ROUTINE FOR TIME STEP   1 IN STRESS PERIOD    1
     5 TOTAL ITERATIONS

 MAXIMUM HEAD CHANGE FOR EACH ITERATION (1 INDICATES THE FIRST INNER ITERATION):

    HEAD CHANGE    HEAD CHANGE    HEAD CHANGE    HEAD CHANGE    HEAD CHANGE 
   LAYER,ROW,COL  LAYER,ROW,COL  LAYER,ROW,COL  LAYER,ROW,COL  LAYER,ROW,COL
 ---------------------------------------------------------------------------
  1 -0.1073E-02  0 -0.1104E-02  0  0.1094E-02  0 -0.3477E-03  1 -0.2110E-03
   ( 23,  1, 70)  ( 10,  1, 12)  ( 10,  1, 12)  ( 11,  1, 64)  ( 11,  1, 69)

 MAXIMUM RESIDUAL FOR EACH ITERATION (1 INDICATES THE FIRST INNER ITERATION):

    RESIDUAL       RESIDUAL       RESIDUAL       RESIDUAL       RESIDUAL    
   LAYER,ROW,COL  LAYER,ROW,COL  LAYER,ROW,COL  LAYER,ROW,COL  LAYER,ROW,COL
 ---------------------------------------------------------------------------
  1 -0.1206E+05  0  -4320.      0   649.8      0   544.0      1   412.2    
   ( 22,  1, 55)  ( 22,  1, 55)  ( 22,  1, 91)  ( 22,  1, 91)  ( 22,  1, 91)


 FLOW MODEL IS TRANSIENT
 FLOW MODEL CONTAINS CONSTANT-HEAD CELLS


 MAXIMUM STEPSIZE DURING WHICH ANY PARTICLE CANNOT MOVE MORE THAN ONE CELL
 =  15.84    (WHEN MIN. R.F.=1)  AT K=  18, I=   1, J=  91

 MAXIMUM STEPSIZE WHICH MEETS STABILITY CRITERION OF THE ADVECTION TERM
 (FOR PURE FINITE-DIFFERENCE OPTION, MIXELM=0) 
 =  9.137    (WHEN MIN. R.F.=1)  AT K=  16, I=   1, J=  90


 TOTAL NUMBER OF POINT SOURCES/SINKS PRESENT IN THE FLOW MODEL =    30

 MAXIMUM STEPSIZE WHICH MEETS STABILITY CRITERION OF THE SINK & SOURCE TERM
 =  12.90    (WHEN MIN. R.F.=1)  AT K=  17, I=   1, J=  91

 MAXIMUM STEPSIZE WHICH MEETS STABILITY CRITERION OF THE DISPERSION TERM
 =  4.840    (WHEN MIN. R.F.=1)  AT K=  16, I=   1, J=  89
     1 CALLS TO GCG PACKAGE FOR TRANSPORT TIME STEP 243 IN FLOW TIME STEP   1 STRESS PERIOD   1
     4 TOTAL ITERATIONS
0WARNING: NUMERICAL OSCILLATION ENCOUNTERED
 ONE OR MORE CELL CONCENTRATIONS LESS THAN CRHOREF
 SMALLEST DENSITY =  0.100E+04
 AT CELL (I,J,K) = (   1,  67,   8)

 
 SOLVING FOR HEAD 


     2 CALLS TO PCG ROUTINE FOR TIME STEP   1 IN STRESS PERIOD    1
     3 TOTAL ITERATIONS

 MAXIMUM HEAD CHANGE FOR EACH ITERATION (1 INDICATES THE FIRST INNER ITERATION):

    HEAD CHANGE    HEAD CHANGE    HEAD CHANGE    HEAD CHANGE    HEAD CHANGE 
   LAYER,ROW,COL  LAYER,ROW,COL  LAYER,ROW,COL  LAYER,ROW,COL  LAYER,ROW,COL
 ---------------------------------------------------------------------------
  1 -0.1025E-02  0 -0.9363E-03  1  0.9505E-03
   ( 23,  1, 70)  ( 10,  1, 12)  ( 10,  1, 12)

 MAXIMUM RESIDUAL FOR EACH ITERATION (1 INDICATES THE FIRST INNER ITERATION):

    RESIDUAL       RESIDUAL       RESIDUAL       RESIDUAL       RESIDUAL    
   LAYER,ROW,COL  LAYER,ROW,COL  LAYER,ROW,COL  LAYER,ROW,COL  LAYER,ROW,COL
 ---------------------------------------------------------------------------
  1 -0.1205E+05  0  -2677.      1  -2683.    
   ( 22,  1, 55)  ( 22,  1, 55)  ( 22,  1, 55)


 FLOW MODEL IS TRANSIENT
 FLOW MODEL CONTAINS CONSTANT-HEAD CELLS


 MAXIMUM STEPSIZE DURING WHICH ANY PARTICLE CANNOT MOVE MORE THAN ONE CELL
 =  15.84    (WHEN MIN. R.F.=1)  AT K=  18, I=   1, J=  91

 MAXIMUM STEPSIZE WHICH MEETS STABILITY CRITERION OF THE ADVECTION TERM
 (FOR PURE FINITE-DIFFERENCE OPTION, MIXELM=0) 
 =  9.128    (WHEN MIN. R.F.=1)  AT K=  16, I=   1, J=  90


 TOTAL NUMBER OF POINT SOURCES/SINKS PRESENT IN THE FLOW MODEL =    30

 MAXIMUM STEPSIZE WHICH MEETS STABILITY CRITERION OF THE SINK & SOURCE TERM
 =  12.89    (WHEN MIN. R.F.=1)  AT K=  17, I=   1, J=  91

 MAXIMUM STEPSIZE WHICH MEETS STABILITY CRITERION OF THE DISPERSION TERM
 =  4.836    (WHEN MIN. R.F.=1)  AT K=  16, I=   1, J=  89
     1 CALLS TO GCG PACKAGE FOR TRANSPORT TIME STEP 244 IN FLOW TIME STEP   1 STRESS PERIOD   1
     4 TOTAL ITERATIONS
0WARNING: NUMERICAL OSCILLATION ENCOUNTERED
 ONE OR MORE CELL CONCENTRATIONS LESS THAN CRHOREF
 SMALLEST DENSITY =  0.100E+04
 AT CELL (I,J,K) = (   1,  67,   8)

 
 SOLVING FOR HEAD 


     2 CALLS TO PCG ROUTINE FOR TIME STEP   1 IN STRESS PERIOD    1
     5 TOTAL ITERATIONS

 MAXIMUM HEAD CHANGE FOR EACH ITERATION (1 INDICATES THE FIRST INNER ITERATION):

    HEAD CHANGE    HEAD CHANGE    HEAD CHANGE    HEAD CHANGE    HEAD CHANGE 
   LAYER,ROW,COL  LAYER,ROW,COL  LAYER,ROW,COL  LAYER,ROW,COL  LAYER,ROW,COL
 ---------------------------------------------------------------------------
  1 -0.1843E-02  0  0.1369E-02  0  0.1536E-02  0  0.3827E-03  1  0.1962E-03
   ( 11,  1, 63)  ( 10,  1, 12)  ( 11,  1, 63)  ( 11,  1, 69)  ( 11,  1, 70)

 MAXIMUM RESIDUAL FOR EACH ITERATION (1 INDICATES THE FIRST INNER ITERATION):

    RESIDUAL       RESIDUAL       RESIDUAL       RESIDUAL       RESIDUAL    
   LAYER,ROW,COL  LAYER,ROW,COL  LAYER,ROW,COL  LAYER,ROW,COL  LAYER,ROW,COL
 ---------------------------------------------------------------------------
  1  -6897.      0  -3174.      0   1521.      0   1247.      1   636.4    
   ( 22,  1, 55)  ( 22,  1, 55)  ( 22,  1, 91)  ( 22,  1, 91)  ( 22,  1, 91)


 FLOW MODEL IS TRANSIENT
 FLOW MODEL CONTAINS CONSTANT-HEAD CELLS


 MAXIMUM STEPSIZE DURING WHICH ANY PARTICLE CANNOT MOVE MORE THAN ONE CELL
 =  15.77    (WHEN MIN. R.F.=1)  AT K=  18, I=   1, J=  91

 MAXIMUM STEPSIZE WHICH MEETS STABILITY CRITERION OF THE ADVECTION TERM
 (FOR PURE FINITE-DIFFERENCE OPTION, MIXELM=0) 
 =  9.112    (WHEN MIN. R.F.=1)  AT K=  16, I=   1, J=  90


 TOTAL NUMBER OF POINT SOURCES/SINKS PRESENT IN THE FLOW MODEL =    30

 MAXIMUM STEPSIZE WHICH MEETS STABILITY CRITERION OF THE SINK & SOURCE TERM
 =  12.84    (WHEN MIN. R.F.=1)  AT K=  17, I=   1, J=  91

 MAXIMUM STEPSIZE WHICH MEETS STABILITY CRITERION OF THE DISPERSION TERM
 =  4.833    (WHEN MIN. R.F.=1)  AT K=  16, I=   1, J=  89
     1 CALLS TO GCG PACKAGE FOR TRANSPORT TIME STEP 245 IN FLOW TIME STEP   1 STRESS PERIOD   1
     4 TOTAL ITERATIONS
  MAXIMUM CONCENTRATION CHANGES FOR EACH ITERATION:
  MAX. CHANGE LAYER,ROW,COL MAX. CHANGE LAYER,ROW,COL MAX. CHANGE LAYER,ROW,COL MAX. CHANGE LAYER,ROW,COL MAX. CHANGE LAYER,ROW,COL
 ------------------------------------------------------------------------------------------------------------------------------------
   0.3303     ( 16,  1, 90)  0.6915E-03 ( 17,  1, 89)  0.1796E-04 ( 16,  1, 89)  0.1293E-06 ( 17,  1, 88)
0WARNING: NUMERICAL OSCILLATION ENCOUNTERED
 ONE OR MORE CELL CONCENTRATIONS LESS THAN CRHOREF
 SMALLEST DENSITY =  0.100E+04
 AT CELL (I,J,K) = (   1,  67,   8)

 
 SOLVING FOR HEAD 


     2 CALLS TO PCG ROUTINE FOR TIME STEP   1 IN STRESS PERIOD    1
     4 TOTAL ITERATIONS

 MAXIMUM HEAD CHANGE FOR EACH ITERATION (1 INDICATES THE FIRST INNER ITERATION):

    HEAD CHANGE    HEAD CHANGE    HEAD CHANGE    HEAD CHANGE    HEAD CHANGE 
   LAYER,ROW,COL  LAYER,ROW,COL  LAYER,ROW,COL  LAYER,ROW,COL  LAYER,ROW,COL
 ---------------------------------------------------------------------------
  1 -0.9869E-03  0 -0.1003E-02  0  0.9952E-03  1 -0.3202E-03
   ( 16,  1, 69)  ( 10,  1, 12)  ( 10,  1, 12)  ( 11,  1, 61)

 MAXIMUM RESIDUAL FOR EACH ITERATION (1 INDICATES THE FIRST INNER ITERATION):

    RESIDUAL       RESIDUAL       RESIDUAL       RESIDUAL       RESIDUAL    
   LAYER,ROW,COL  LAYER,ROW,COL  LAYER,ROW,COL  LAYER,ROW,COL  LAYER,ROW,COL
 ---------------------------------------------------------------------------
  1 -0.1096E+05  0  -3309.      0   837.1      1   735.5    
   ( 22,  1, 55)  ( 22,  1, 55)  ( 22,  1, 92)  ( 22,  1, 92)


 FLOW MODEL IS TRANSIENT
 FLOW MODEL CONTAINS CONSTANT-HEAD CELLS


 MAXIMUM STEPSIZE DURING WHICH ANY PARTICLE CANNOT MOVE MORE THAN ONE CELL
 =  15.77    (WHEN MIN. R.F.=1)  AT K=  18, I=   1, J=  91

 MAXIMUM STEPSIZE WHICH MEETS STABILITY CRITERION OF THE ADVECTION TERM
 (FOR PURE FINITE-DIFFERENCE OPTION, MIXELM=0) 
 =  9.109    (WHEN MIN. R.F.=1)  AT K=  16, I=   1, J=  90


 TOTAL NUMBER OF POINT SOURCES/SINKS PRESENT IN THE FLOW MODEL =    30

 MAXIMUM STEPSIZE WHICH MEETS STABILITY CRITERION OF THE SINK & SOURCE TERM
 =  12.84    (WHEN MIN. R.F.=1)  AT K=  17, I=   1, J=  91

 MAXIMUM STEPSIZE WHICH MEETS STABILITY CRITERION OF THE DISPERSION TERM
 =  4.829    (WHEN MIN. R.F.=1)  AT K=  16, I=   1, J=  89
     1 CALLS TO GCG PACKAGE FOR TRANSPORT TIME STEP 246 IN FLOW TIME STEP   1 STRESS PERIOD   1
     4 TOTAL ITERATIONS
0WARNING: NUMERICAL OSCILLATION ENCOUNTERED
 ONE OR MORE CELL CONCENTRATIONS LESS THAN CRHOREF
 SMALLEST DENSITY =  0.100E+04
 AT CELL (I,J,K) = (   1,  67,   8)

 
 SOLVING FOR HEAD 


     2 CALLS TO PCG ROUTINE FOR TIME STEP   1 IN STRESS PERIOD    1
     4 TOTAL ITERATIONS

 MAXIMUM HEAD CHANGE FOR EACH ITERATION (1 INDICATES THE FIRST INNER ITERATION):

    HEAD CHANGE    HEAD CHANGE    HEAD CHANGE    HEAD CHANGE    HEAD CHANGE 
   LAYER,ROW,COL  LAYER,ROW,COL  LAYER,ROW,COL  LAYER,ROW,COL  LAYER,ROW,COL
 ---------------------------------------------------------------------------
  1  0.1461E-02  0 -0.1603E-02  0  0.9747E-03  1 -0.1829E-03
   ( 10,  1, 12)  ( 10,  1, 12)  ( 20,  1, 70)  ( 11,  1, 64)

 MAXIMUM RESIDUAL FOR EACH ITERATION (1 INDICATES THE FIRST INNER ITERATION):

    RESIDUAL       RESIDUAL       RESIDUAL       RESIDUAL       RESIDUAL    
   LAYER,ROW,COL  LAYER,ROW,COL  LAYER,ROW,COL  LAYER,ROW,COL  LAYER,ROW,COL
 ---------------------------------------------------------------------------
  1 -0.1948E+05  0  -9848.      0  -1103.      1  -933.4    
   ( 22,  1, 55)  ( 22,  1, 55)  ( 22,  1, 92)  ( 22,  1, 92)


 FLOW MODEL IS TRANSIENT
 FLOW MODEL CONTAINS CONSTANT-HEAD CELLS


 MAXIMUM STEPSIZE DURING WHICH ANY PARTICLE CANNOT MOVE MORE THAN ONE CELL
 =  15.75    (WHEN MIN. R.F.=1)  AT K=  18, I=   1, J=  91

 MAXIMUM STEPSIZE WHICH MEETS STABILITY CRITERION OF THE ADVECTION TERM
 (FOR PURE FINITE-DIFFERENCE OPTION, MIXELM=0) 
 =  9.100    (WHEN MIN. R.F.=1)  AT K=  16, I=   1, J=  90


 TOTAL NUMBER OF POINT SOURCES/SINKS PRESENT IN THE FLOW MODEL =    30

 MAXIMUM STEPSIZE WHICH MEETS STABILITY CRITERION OF THE SINK & SOURCE TERM
 =  12.83    (WHEN MIN. R.F.=1)  AT K=  17, I=   1, J=  91

 MAXIMUM STEPSIZE WHICH MEETS STABILITY CRITERION OF THE DISPERSION TERM
 =  4.824    (WHEN MIN. R.F.=1)  AT K=  16, I=   1, J=  89
     1 CALLS TO GCG PACKAGE FOR TRANSPORT TIME STEP 247 IN FLOW TIME STEP   1 STRESS PERIOD   1
     4 TOTAL ITERATIONS
0WARNING: NUMERICAL OSCILLATION ENCOUNTERED
 ONE OR MORE CELL CONCENTRATIONS LESS THAN CRHOREF
 SMALLEST DENSITY =  0.100E+04
 AT CELL (I,J,K) = (   1,  67,   8)

 
 SOLVING FOR HEAD 


     2 CALLS TO PCG ROUTINE FOR TIME STEP   1 IN STRESS PERIOD    1
     5 TOTAL ITERATIONS

 MAXIMUM HEAD CHANGE FOR EACH ITERATION (1 INDICATES THE FIRST INNER ITERATION):

    HEAD CHANGE    HEAD CHANGE    HEAD CHANGE    HEAD CHANGE    HEAD CHANGE 
   LAYER,ROW,COL  LAYER,ROW,COL  LAYER,ROW,COL  LAYER,ROW,COL  LAYER,ROW,COL
 ---------------------------------------------------------------------------
  1 -0.1033E-02  0 -0.1135E-02  0  0.1087E-02  0 -0.2811E-03  1 -0.1579E-03
   ( 23,  1, 71)  ( 10,  1, 12)  ( 10,  1, 12)  ( 11,  1, 44)  ( 11,  1, 69)

 MAXIMUM RESIDUAL FOR EACH ITERATION (1 INDICATES THE FIRST INNER ITERATION):

    RESIDUAL       RESIDUAL       RESIDUAL       RESIDUAL       RESIDUAL    
   LAYER,ROW,COL  LAYER,ROW,COL  LAYER,ROW,COL  LAYER,ROW,COL  LAYER,ROW,COL
 ---------------------------------------------------------------------------
  1 -0.1128E+05  0  -5307.      0   1157.      0   1015.      1   790.1    
   ( 22,  1, 55)  ( 22,  1, 55)  ( 22,  1, 92)  ( 22,  1, 92)  ( 22,  1, 92)


 FLOW MODEL IS TRANSIENT
 FLOW MODEL CONTAINS CONSTANT-HEAD CELLS


 MAXIMUM STEPSIZE DURING WHICH ANY PARTICLE CANNOT MOVE MORE THAN ONE CELL
 =  15.75    (WHEN MIN. R.F.=1)  AT K=  18, I=   1, J=  91

 MAXIMUM STEPSIZE WHICH MEETS STABILITY CRITERION OF THE ADVECTION TERM
 (FOR PURE FINITE-DIFFERENCE OPTION, MIXELM=0) 
 =  9.097    (WHEN MIN. R.F.=1)  AT K=  16, I=   1, J=  90


 TOTAL NUMBER OF POINT SOURCES/SINKS PRESENT IN THE FLOW MODEL =    30

 MAXIMUM STEPSIZE WHICH MEETS STABILITY CRITERION OF THE SINK & SOURCE TERM
 =  12.83    (WHEN MIN. R.F.=1)  AT K=  17, I=   1, J=  91

 MAXIMUM STEPSIZE WHICH MEETS STABILITY CRITERION OF THE DISPERSION TERM
 =  4.820    (WHEN MIN. R.F.=1)  AT K=  16, I=   1, J=  89
     1 CALLS TO GCG PACKAGE FOR TRANSPORT TIME STEP 248 IN FLOW TIME STEP   1 STRESS PERIOD   1
     4 TOTAL ITERATIONS
0WARNING: NUMERICAL OSCILLATION ENCOUNTERED
 ONE OR MORE CELL CONCENTRATIONS LESS THAN CRHOREF
 SMALLEST DENSITY =  0.100E+04
 AT CELL (I,J,K) = (   1,  67,   8)

 
 SOLVING FOR HEAD 


     2 CALLS TO PCG ROUTINE FOR TIME STEP   1 IN STRESS PERIOD    1
     3 TOTAL ITERATIONS

 MAXIMUM HEAD CHANGE FOR EACH ITERATION (1 INDICATES THE FIRST INNER ITERATION):

    HEAD CHANGE    HEAD CHANGE    HEAD CHANGE    HEAD CHANGE    HEAD CHANGE 
   LAYER,ROW,COL  LAYER,ROW,COL  LAYER,ROW,COL  LAYER,ROW,COL  LAYER,ROW,COL
 ---------------------------------------------------------------------------
  1 -0.1034E-02  0 -0.9669E-03  1  0.9752E-03
   ( 23,  1, 70)  ( 10,  1, 12)  ( 10,  1, 12)

 MAXIMUM RESIDUAL FOR EACH ITERATION (1 INDICATES THE FIRST INNER ITERATION):

    RESIDUAL       RESIDUAL       RESIDUAL       RESIDUAL       RESIDUAL    
   LAYER,ROW,COL  LAYER,ROW,COL  LAYER,ROW,COL  LAYER,ROW,COL  LAYER,ROW,COL
 ---------------------------------------------------------------------------
  1 -0.1124E+05  0  -2890.      1  -2896.    
   ( 22,  1, 55)  ( 22,  1, 55)  ( 22,  1, 55)


 FLOW MODEL IS TRANSIENT
 FLOW MODEL CONTAINS CONSTANT-HEAD CELLS


 MAXIMUM STEPSIZE DURING WHICH ANY PARTICLE CANNOT MOVE MORE THAN ONE CELL
 =  15.74    (WHEN MIN. R.F.=1)  AT K=  18, I=   1, J=  91

 MAXIMUM STEPSIZE WHICH MEETS STABILITY CRITERION OF THE ADVECTION TERM
 (FOR PURE FINITE-DIFFERENCE OPTION, MIXELM=0) 
 =  9.093    (WHEN MIN. R.F.=1)  AT K=  16, I=   1, J=  90


 TOTAL NUMBER OF POINT SOURCES/SINKS PRESENT IN THE FLOW MODEL =    30

 MAXIMUM STEPSIZE WHICH MEETS STABILITY CRITERION OF THE SINK & SOURCE TERM
 =  12.82    (WHEN MIN. R.F.=1)  AT K=  17, I=   1, J=  91

 MAXIMUM STEPSIZE WHICH MEETS STABILITY CRITERION OF THE DISPERSION TERM
 =  4.818    (WHEN MIN. R.F.=1)  AT K=  16, I=   1, J=  89
     1 CALLS TO GCG PACKAGE FOR TRANSPORT TIME STEP 249 IN FLOW TIME STEP   1 STRESS PERIOD   1
     4 TOTAL ITERATIONS
0WARNING: NUMERICAL OSCILLATION ENCOUNTERED
 ONE OR MORE CELL CONCENTRATIONS LESS THAN CRHOREF
 SMALLEST DENSITY =  0.100E+04
 AT CELL (I,J,K) = (   1,  67,   8)

 
 SOLVING FOR HEAD 


     2 CALLS TO PCG ROUTINE FOR TIME STEP   1 IN STRESS PERIOD    1
     5 TOTAL ITERATIONS

 MAXIMUM HEAD CHANGE FOR EACH ITERATION (1 INDICATES THE FIRST INNER ITERATION):

    HEAD CHANGE    HEAD CHANGE    HEAD CHANGE    HEAD CHANGE    HEAD CHANGE 
   LAYER,ROW,COL  LAYER,ROW,COL  LAYER,ROW,COL  LAYER,ROW,COL  LAYER,ROW,COL
 ---------------------------------------------------------------------------
  1 -0.1487E-02  0  0.1567E-02  0  0.1027E-02  0  0.2586E-03  1  0.2643E-03
   ( 10,  1, 12)  ( 10,  1, 12)  ( 11,  1, 64)  ( 11,  1, 69)  ( 11,  1, 70)

 MAXIMUM RESIDUAL FOR EACH ITERATION (1 INDICATES THE FIRST INNER ITERATION):

    RESIDUAL       RESIDUAL       RESIDUAL       RESIDUAL       RESIDUAL    
   LAYER,ROW,COL  LAYER,ROW,COL  LAYER,ROW,COL  LAYER,ROW,COL  LAYER,ROW,COL
 ---------------------------------------------------------------------------
  1  -6871.      0  -2111.      0  -1078.      0  -939.3      1  -530.7    
   ( 22,  1, 55)  ( 22,  1, 55)  ( 22,  1, 93)  ( 22,  1, 93)  ( 22,  1, 93)


 FLOW MODEL IS TRANSIENT
 FLOW MODEL CONTAINS CONSTANT-HEAD CELLS


 MAXIMUM STEPSIZE DURING WHICH ANY PARTICLE CANNOT MOVE MORE THAN ONE CELL
 =  15.74    (WHEN MIN. R.F.=1)  AT K=  18, I=   1, J=  91

 MAXIMUM STEPSIZE WHICH MEETS STABILITY CRITERION OF THE ADVECTION TERM
 (FOR PURE FINITE-DIFFERENCE OPTION, MIXELM=0) 
 =  9.082    (WHEN MIN. R.F.=1)  AT K=  16, I=   1, J=  90


 TOTAL NUMBER OF POINT SOURCES/SINKS PRESENT IN THE FLOW MODEL =    30

 MAXIMUM STEPSIZE WHICH MEETS STABILITY CRITERION OF THE SINK & SOURCE TERM
 =  12.82    (WHEN MIN. R.F.=1)  AT K=  17, I=   1, J=  91

 MAXIMUM STEPSIZE WHICH MEETS STABILITY CRITERION OF THE DISPERSION TERM
 =  4.814    (WHEN MIN. R.F.=1)  AT K=  16, I=   1, J=  89
     1 CALLS TO GCG PACKAGE FOR TRANSPORT TIME STEP 250 IN FLOW TIME STEP   1 STRESS PERIOD   1
     4 TOTAL ITERATIONS
  MAXIMUM CONCENTRATION CHANGES FOR EACH ITERATION:
  MAX. CHANGE LAYER,ROW,COL MAX. CHANGE LAYER,ROW,COL MAX. CHANGE LAYER,ROW,COL MAX. CHANGE LAYER,ROW,COL MAX. CHANGE LAYER,ROW,COL
 ------------------------------------------------------------------------------------------------------------------------------------
   0.3302     ( 16,  1, 90)  0.6907E-03 ( 17,  1, 89)  0.1797E-04 ( 16,  1, 89)  0.1300E-06 ( 17,  1, 88)



 >>>>>>>>>>>>>>>>>>>>>>>>>>>>>>>>>>>>>>>>>>>>>>>>>>>>>>>FOR COMPONENT NO. 01<<<<<<<<<<<<<<<<<<<<<<<<<<<<<<<<<<<<<<<<<<<<<<<<<<<<<<<


                                            -------------------------------------------
                                                      TRANSPORT STEP NO.  250
                                            -------------------------------------------

 TOTAL ELAPSED TIME SINCE BEGINNING OF SIMULATION =   1714.818    D   
 .....................................................................

                     CUMMULATIVE MASS BUDGETS AT END OF TRANSPORT STEP  250, TIME STEP    1, STRESS PERIOD    1
                     ------------------------------------------------------------------------------------------

                                                             IN                           OUT
                                                      ----------------             ----------------
                               CONSTANT CONCENTRATION:    0.000000                    0.000000    
                                        CONSTANT HEAD:   0.3240333E+08              -0.3553587E+08
                                             RECHARGE:    0.000000                    0.000000    
                                MASS STORAGE (SOLUTE):   0.2554972E+08              -0.2241718E+08
                            ---------------------------------------------------------------------------
                                              [TOTAL]:   0.5795421E+08 KG           -0.5795421E+08 KG  

                                                          NET (IN - OUT):    1.332194    
                                                   DISCREPANCY (PERCENT):   0.2298700E-05
0WARNING: NUMERICAL OSCILLATION ENCOUNTERED
 ONE OR MORE CELL CONCENTRATIONS LESS THAN CRHOREF
 SMALLEST DENSITY =  0.100E+04
 AT CELL (I,J,K) = (   1,  67,   8)

 
 SOLVING FOR HEAD 


     2 CALLS TO PCG ROUTINE FOR TIME STEP   1 IN STRESS PERIOD    1
     3 TOTAL ITERATIONS

 MAXIMUM HEAD CHANGE FOR EACH ITERATION (1 INDICATES THE FIRST INNER ITERATION):

    HEAD CHANGE    HEAD CHANGE    HEAD CHANGE    HEAD CHANGE    HEAD CHANGE 
   LAYER,ROW,COL  LAYER,ROW,COL  LAYER,ROW,COL  LAYER,ROW,COL  LAYER,ROW,COL
 ---------------------------------------------------------------------------
  1 -0.9900E-03  0 -0.9507E-03  1  0.9546E-03
   ( 16,  1, 69)  ( 10,  1, 12)  ( 10,  1, 12)

 MAXIMUM RESIDUAL FOR EACH ITERATION (1 INDICATES THE FIRST INNER ITERATION):

    RESIDUAL       RESIDUAL       RESIDUAL       RESIDUAL       RESIDUAL    
   LAYER,ROW,COL  LAYER,ROW,COL  LAYER,ROW,COL  LAYER,ROW,COL  LAYER,ROW,COL
 ---------------------------------------------------------------------------
  1 -0.1078E+05  0  -2864.      1  -2871.    
   ( 22,  1, 55)  ( 22,  1, 55)  ( 22,  1, 55)


 FLOW MODEL IS TRANSIENT
 FLOW MODEL CONTAINS CONSTANT-HEAD CELLS


 MAXIMUM STEPSIZE DURING WHICH ANY PARTICLE CANNOT MOVE MORE THAN ONE CELL
 =  15.74    (WHEN MIN. R.F.=1)  AT K=  18, I=   1, J=  91

 MAXIMUM STEPSIZE WHICH MEETS STABILITY CRITERION OF THE ADVECTION TERM
 (FOR PURE FINITE-DIFFERENCE OPTION, MIXELM=0) 
 =  9.074    (WHEN MIN. R.F.=1)  AT K=  16, I=   1, J=  90


 TOTAL NUMBER OF POINT SOURCES/SINKS PRESENT IN THE FLOW MODEL =    30

 MAXIMUM STEPSIZE WHICH MEETS STABILITY CRITERION OF THE SINK & SOURCE TERM
 =  12.81    (WHEN MIN. R.F.=1)  AT K=  17, I=   1, J=  91

 MAXIMUM STEPSIZE WHICH MEETS STABILITY CRITERION OF THE DISPERSION TERM
 =  4.811    (WHEN MIN. R.F.=1)  AT K=  16, I=   1, J=  89
     1 CALLS TO GCG PACKAGE FOR TRANSPORT TIME STEP 251 IN FLOW TIME STEP   1 STRESS PERIOD   1
     4 TOTAL ITERATIONS
0WARNING: NUMERICAL OSCILLATION ENCOUNTERED
 ONE OR MORE CELL CONCENTRATIONS LESS THAN CRHOREF
 SMALLEST DENSITY =  0.100E+04
 AT CELL (I,J,K) = (   1,  67,   8)

 
 SOLVING FOR HEAD 


     2 CALLS TO PCG ROUTINE FOR TIME STEP   1 IN STRESS PERIOD    1
     5 TOTAL ITERATIONS

 MAXIMUM HEAD CHANGE FOR EACH ITERATION (1 INDICATES THE FIRST INNER ITERATION):

    HEAD CHANGE    HEAD CHANGE    HEAD CHANGE    HEAD CHANGE    HEAD CHANGE 
   LAYER,ROW,COL  LAYER,ROW,COL  LAYER,ROW,COL  LAYER,ROW,COL  LAYER,ROW,COL
 ---------------------------------------------------------------------------
  1 -0.1579E-02  0  0.1599E-02  0  0.1063E-02  0  0.2168E-03  1  0.2110E-03
   ( 10,  1, 12)  ( 10,  1, 12)  ( 11,  1, 44)  ( 11,  1, 54)  ( 11,  1, 69)

 MAXIMUM RESIDUAL FOR EACH ITERATION (1 INDICATES THE FIRST INNER ITERATION):

    RESIDUAL       RESIDUAL       RESIDUAL       RESIDUAL       RESIDUAL    
   LAYER,ROW,COL  LAYER,ROW,COL  LAYER,ROW,COL  LAYER,ROW,COL  LAYER,ROW,COL
 ---------------------------------------------------------------------------
  1  -7772.      0  -2649.      0  -1091.      0  -980.0      1  -479.7    
   ( 22,  1, 55)  ( 22,  1, 55)  ( 22,  1, 93)  ( 22,  1, 93)  ( 22,  1, 93)


 FLOW MODEL IS TRANSIENT
 FLOW MODEL CONTAINS CONSTANT-HEAD CELLS


 MAXIMUM STEPSIZE DURING WHICH ANY PARTICLE CANNOT MOVE MORE THAN ONE CELL
 =  15.71    (WHEN MIN. R.F.=1)  AT K=  18, I=   1, J=  91

 MAXIMUM STEPSIZE WHICH MEETS STABILITY CRITERION OF THE ADVECTION TERM
 (FOR PURE FINITE-DIFFERENCE OPTION, MIXELM=0) 
 =  9.061    (WHEN MIN. R.F.=1)  AT K=  16, I=   1, J=  90


 TOTAL NUMBER OF POINT SOURCES/SINKS PRESENT IN THE FLOW MODEL =    30

 MAXIMUM STEPSIZE WHICH MEETS STABILITY CRITERION OF THE SINK & SOURCE TERM
 =  12.79    (WHEN MIN. R.F.=1)  AT K=  17, I=   1, J=  91

 MAXIMUM STEPSIZE WHICH MEETS STABILITY CRITERION OF THE DISPERSION TERM
 =  4.808    (WHEN MIN. R.F.=1)  AT K=  16, I=   1, J=  89
     1 CALLS TO GCG PACKAGE FOR TRANSPORT TIME STEP 252 IN FLOW TIME STEP   1 STRESS PERIOD   1
     4 TOTAL ITERATIONS
0WARNING: NUMERICAL OSCILLATION ENCOUNTERED
 ONE OR MORE CELL CONCENTRATIONS LESS THAN CRHOREF
 SMALLEST DENSITY =  0.100E+04
 AT CELL (I,J,K) = (   1,  67,   8)

 
 SOLVING FOR HEAD 


     2 CALLS TO PCG ROUTINE FOR TIME STEP   1 IN STRESS PERIOD    1
     3 TOTAL ITERATIONS

 MAXIMUM HEAD CHANGE FOR EACH ITERATION (1 INDICATES THE FIRST INNER ITERATION):

    HEAD CHANGE    HEAD CHANGE    HEAD CHANGE    HEAD CHANGE    HEAD CHANGE 
   LAYER,ROW,COL  LAYER,ROW,COL  LAYER,ROW,COL  LAYER,ROW,COL  LAYER,ROW,COL
 ---------------------------------------------------------------------------
  1 -0.9711E-03  0 -0.9522E-03  1  0.9431E-03
   ( 16,  1, 68)  ( 10,  1, 12)  ( 10,  1, 12)

 MAXIMUM RESIDUAL FOR EACH ITERATION (1 INDICATES THE FIRST INNER ITERATION):

    RESIDUAL       RESIDUAL       RESIDUAL       RESIDUAL       RESIDUAL    
   LAYER,ROW,COL  LAYER,ROW,COL  LAYER,ROW,COL  LAYER,ROW,COL  LAYER,ROW,COL
 ---------------------------------------------------------------------------
  1 -0.1070E+05  0  -2770.      1  -2777.    
   ( 22,  1, 55)  ( 22,  1, 55)  ( 22,  1, 55)


 FLOW MODEL IS TRANSIENT
 FLOW MODEL CONTAINS CONSTANT-HEAD CELLS


 MAXIMUM STEPSIZE DURING WHICH ANY PARTICLE CANNOT MOVE MORE THAN ONE CELL
 =  15.70    (WHEN MIN. R.F.=1)  AT K=  18, I=   1, J=  91

 MAXIMUM STEPSIZE WHICH MEETS STABILITY CRITERION OF THE ADVECTION TERM
 (FOR PURE FINITE-DIFFERENCE OPTION, MIXELM=0) 
 =  9.054    (WHEN MIN. R.F.=1)  AT K=  16, I=   1, J=  90


 TOTAL NUMBER OF POINT SOURCES/SINKS PRESENT IN THE FLOW MODEL =    30

 MAXIMUM STEPSIZE WHICH MEETS STABILITY CRITERION OF THE SINK & SOURCE TERM
 =  12.79    (WHEN MIN. R.F.=1)  AT K=  17, I=   1, J=  91

 MAXIMUM STEPSIZE WHICH MEETS STABILITY CRITERION OF THE DISPERSION TERM
 =  4.804    (WHEN MIN. R.F.=1)  AT K=  16, I=   1, J=  89
     1 CALLS TO GCG PACKAGE FOR TRANSPORT TIME STEP 253 IN FLOW TIME STEP   1 STRESS PERIOD   1
     4 TOTAL ITERATIONS
0WARNING: NUMERICAL OSCILLATION ENCOUNTERED
 ONE OR MORE CELL CONCENTRATIONS LESS THAN CRHOREF
 SMALLEST DENSITY =  0.100E+04
 AT CELL (I,J,K) = (   1,  67,   8)

 
 SOLVING FOR HEAD 


     2 CALLS TO PCG ROUTINE FOR TIME STEP   1 IN STRESS PERIOD    1
     5 TOTAL ITERATIONS

 MAXIMUM HEAD CHANGE FOR EACH ITERATION (1 INDICATES THE FIRST INNER ITERATION):

    HEAD CHANGE    HEAD CHANGE    HEAD CHANGE    HEAD CHANGE    HEAD CHANGE 
   LAYER,ROW,COL  LAYER,ROW,COL  LAYER,ROW,COL  LAYER,ROW,COL  LAYER,ROW,COL
 ---------------------------------------------------------------------------
  1 -0.1514E-02  0  0.1578E-02  0  0.1122E-02  0  0.2365E-03  1  0.2357E-03
   ( 10,  1, 12)  ( 10,  1, 12)  ( 11,  1, 43)  ( 11,  1, 54)  ( 11,  1, 70)

 MAXIMUM RESIDUAL FOR EACH ITERATION (1 INDICATES THE FIRST INNER ITERATION):

    RESIDUAL       RESIDUAL       RESIDUAL       RESIDUAL       RESIDUAL    
   LAYER,ROW,COL  LAYER,ROW,COL  LAYER,ROW,COL  LAYER,ROW,COL  LAYER,ROW,COL
 ---------------------------------------------------------------------------
  1  -7849.      0  -2833.      0  -837.3      0  -770.9      1  -380.6    
   ( 22,  1, 55)  ( 22,  1, 55)  ( 22,  1, 93)  ( 22,  1, 93)  ( 22,  1, 93)


 FLOW MODEL IS TRANSIENT
 FLOW MODEL CONTAINS CONSTANT-HEAD CELLS


 MAXIMUM STEPSIZE DURING WHICH ANY PARTICLE CANNOT MOVE MORE THAN ONE CELL
 =  15.67    (WHEN MIN. R.F.=1)  AT K=  18, I=   1, J=  91

 MAXIMUM STEPSIZE WHICH MEETS STABILITY CRITERION OF THE ADVECTION TERM
 (FOR PURE FINITE-DIFFERENCE OPTION, MIXELM=0) 
 =  9.043    (WHEN MIN. R.F.=1)  AT K=  16, I=   1, J=  90


 TOTAL NUMBER OF POINT SOURCES/SINKS PRESENT IN THE FLOW MODEL =    30

 MAXIMUM STEPSIZE WHICH MEETS STABILITY CRITERION OF THE SINK & SOURCE TERM
 =  12.76    (WHEN MIN. R.F.=1)  AT K=  17, I=   1, J=  91

 MAXIMUM STEPSIZE WHICH MEETS STABILITY CRITERION OF THE DISPERSION TERM
 =  4.801    (WHEN MIN. R.F.=1)  AT K=  16, I=   1, J=  89
     1 CALLS TO GCG PACKAGE FOR TRANSPORT TIME STEP 254 IN FLOW TIME STEP   1 STRESS PERIOD   1
     4 TOTAL ITERATIONS
0WARNING: NUMERICAL OSCILLATION ENCOUNTERED
 ONE OR MORE CELL CONCENTRATIONS LESS THAN CRHOREF
 SMALLEST DENSITY =  0.100E+04
 AT CELL (I,J,K) = (   1,  67,   8)

 
 SOLVING FOR HEAD 


     2 CALLS TO PCG ROUTINE FOR TIME STEP   1 IN STRESS PERIOD    1
     3 TOTAL ITERATIONS

 MAXIMUM HEAD CHANGE FOR EACH ITERATION (1 INDICATES THE FIRST INNER ITERATION):

    HEAD CHANGE    HEAD CHANGE    HEAD CHANGE    HEAD CHANGE    HEAD CHANGE 
   LAYER,ROW,COL  LAYER,ROW,COL  LAYER,ROW,COL  LAYER,ROW,COL  LAYER,ROW,COL
 ---------------------------------------------------------------------------
  1 -0.9727E-03  0 -0.9313E-03  1  0.9298E-03
   ( 16,  1, 69)  ( 10,  1, 12)  ( 10,  1, 12)

 MAXIMUM RESIDUAL FOR EACH ITERATION (1 INDICATES THE FIRST INNER ITERATION):

    RESIDUAL       RESIDUAL       RESIDUAL       RESIDUAL       RESIDUAL    
   LAYER,ROW,COL  LAYER,ROW,COL  LAYER,ROW,COL  LAYER,ROW,COL  LAYER,ROW,COL
 ---------------------------------------------------------------------------
  1 -0.1038E+05  0  -2584.      1  -2591.    
   ( 22,  1, 55)  ( 22,  1, 55)  ( 22,  1, 55)


 FLOW MODEL IS TRANSIENT
 FLOW MODEL CONTAINS CONSTANT-HEAD CELLS


 MAXIMUM STEPSIZE DURING WHICH ANY PARTICLE CANNOT MOVE MORE THAN ONE CELL
 =  15.65    (WHEN MIN. R.F.=1)  AT K=  18, I=   1, J=  91

 MAXIMUM STEPSIZE WHICH MEETS STABILITY CRITERION OF THE ADVECTION TERM
 (FOR PURE FINITE-DIFFERENCE OPTION, MIXELM=0) 
 =  9.037    (WHEN MIN. R.F.=1)  AT K=  16, I=   1, J=  90


 TOTAL NUMBER OF POINT SOURCES/SINKS PRESENT IN THE FLOW MODEL =    30

 MAXIMUM STEPSIZE WHICH MEETS STABILITY CRITERION OF THE SINK & SOURCE TERM
 =  12.75    (WHEN MIN. R.F.=1)  AT K=  17, I=   1, J=  91

 MAXIMUM STEPSIZE WHICH MEETS STABILITY CRITERION OF THE DISPERSION TERM
 =  4.798    (WHEN MIN. R.F.=1)  AT K=  16, I=   1, J=  89
     1 CALLS TO GCG PACKAGE FOR TRANSPORT TIME STEP 255 IN FLOW TIME STEP   1 STRESS PERIOD   1
     4 TOTAL ITERATIONS
  MAXIMUM CONCENTRATION CHANGES FOR EACH ITERATION:
  MAX. CHANGE LAYER,ROW,COL MAX. CHANGE LAYER,ROW,COL MAX. CHANGE LAYER,ROW,COL MAX. CHANGE LAYER,ROW,COL MAX. CHANGE LAYER,ROW,COL
 ------------------------------------------------------------------------------------------------------------------------------------
   0.3300     ( 16,  1, 90)  0.6842E-03 ( 17,  1, 89)  0.1776E-04 ( 16,  1, 89)  0.1299E-06 ( 17,  1, 88)
0WARNING: NUMERICAL OSCILLATION ENCOUNTERED
 ONE OR MORE CELL CONCENTRATIONS LESS THAN CRHOREF
 SMALLEST DENSITY =  0.100E+04
 AT CELL (I,J,K) = (   1,  67,   8)

 
 SOLVING FOR HEAD 


     2 CALLS TO PCG ROUTINE FOR TIME STEP   1 IN STRESS PERIOD    1
     5 TOTAL ITERATIONS

 MAXIMUM HEAD CHANGE FOR EACH ITERATION (1 INDICATES THE FIRST INNER ITERATION):

    HEAD CHANGE    HEAD CHANGE    HEAD CHANGE    HEAD CHANGE    HEAD CHANGE 
   LAYER,ROW,COL  LAYER,ROW,COL  LAYER,ROW,COL  LAYER,ROW,COL  LAYER,ROW,COL
 ---------------------------------------------------------------------------
  1 -0.1458E-02  0  0.1494E-02  0 -0.1061E-02  0  0.1989E-03  1  0.2083E-03
   ( 10,  1, 12)  ( 10,  1, 12)  ( 11,  1, 53)  ( 11,  1, 53)  ( 11,  1, 69)

 MAXIMUM RESIDUAL FOR EACH ITERATION (1 INDICATES THE FIRST INNER ITERATION):

    RESIDUAL       RESIDUAL       RESIDUAL       RESIDUAL       RESIDUAL    
   LAYER,ROW,COL  LAYER,ROW,COL  LAYER,ROW,COL  LAYER,ROW,COL  LAYER,ROW,COL
 ---------------------------------------------------------------------------
  1  -6275.      0  -1802.      0   676.7      0   604.1      1  -320.4    
   ( 22,  1, 55)  ( 22,  1, 55)  ( 22,  1, 94)  ( 22,  1, 94)  ( 19,  1, 86)


 FLOW MODEL IS TRANSIENT
 FLOW MODEL CONTAINS CONSTANT-HEAD CELLS


 MAXIMUM STEPSIZE DURING WHICH ANY PARTICLE CANNOT MOVE MORE THAN ONE CELL
 =  15.63    (WHEN MIN. R.F.=1)  AT K=  18, I=   1, J=  91

 MAXIMUM STEPSIZE WHICH MEETS STABILITY CRITERION OF THE ADVECTION TERM
 (FOR PURE FINITE-DIFFERENCE OPTION, MIXELM=0) 
 =  9.028    (WHEN MIN. R.F.=1)  AT K=  16, I=   1, J=  90


 TOTAL NUMBER OF POINT SOURCES/SINKS PRESENT IN THE FLOW MODEL =    30

 MAXIMUM STEPSIZE WHICH MEETS STABILITY CRITERION OF THE SINK & SOURCE TERM
 =  12.73    (WHEN MIN. R.F.=1)  AT K=  17, I=   1, J=  91

 MAXIMUM STEPSIZE WHICH MEETS STABILITY CRITERION OF THE DISPERSION TERM
 =  4.794    (WHEN MIN. R.F.=1)  AT K=  16, I=   1, J=  89
     1 CALLS TO GCG PACKAGE FOR TRANSPORT TIME STEP 256 IN FLOW TIME STEP   1 STRESS PERIOD   1
     4 TOTAL ITERATIONS
0WARNING: NUMERICAL OSCILLATION ENCOUNTERED
 ONE OR MORE CELL CONCENTRATIONS LESS THAN CRHOREF
 SMALLEST DENSITY =  0.100E+04
 AT CELL (I,J,K) = (   1,  67,   8)

 
 SOLVING FOR HEAD 


     2 CALLS TO PCG ROUTINE FOR TIME STEP   1 IN STRESS PERIOD    1
     3 TOTAL ITERATIONS

 MAXIMUM HEAD CHANGE FOR EACH ITERATION (1 INDICATES THE FIRST INNER ITERATION):

    HEAD CHANGE    HEAD CHANGE    HEAD CHANGE    HEAD CHANGE    HEAD CHANGE 
   LAYER,ROW,COL  LAYER,ROW,COL  LAYER,ROW,COL  LAYER,ROW,COL  LAYER,ROW,COL
 ---------------------------------------------------------------------------
  1 -0.9633E-03  0 -0.9685E-03  1  0.9507E-03
   ( 16,  1, 69)  ( 10,  1, 12)  ( 10,  1, 12)

 MAXIMUM RESIDUAL FOR EACH ITERATION (1 INDICATES THE FIRST INNER ITERATION):

    RESIDUAL       RESIDUAL       RESIDUAL       RESIDUAL       RESIDUAL    
   LAYER,ROW,COL  LAYER,ROW,COL  LAYER,ROW,COL  LAYER,ROW,COL  LAYER,ROW,COL
 ---------------------------------------------------------------------------
  1 -0.1011E+05  0  -2780.      1  -2787.    
   ( 22,  1, 55)  ( 22,  1, 55)  ( 22,  1, 55)


 FLOW MODEL IS TRANSIENT
 FLOW MODEL CONTAINS CONSTANT-HEAD CELLS


 MAXIMUM STEPSIZE DURING WHICH ANY PARTICLE CANNOT MOVE MORE THAN ONE CELL
 =  15.61    (WHEN MIN. R.F.=1)  AT K=  18, I=   1, J=  91

 MAXIMUM STEPSIZE WHICH MEETS STABILITY CRITERION OF THE ADVECTION TERM
 (FOR PURE FINITE-DIFFERENCE OPTION, MIXELM=0) 
 =  9.022    (WHEN MIN. R.F.=1)  AT K=  16, I=   1, J=  90


 TOTAL NUMBER OF POINT SOURCES/SINKS PRESENT IN THE FLOW MODEL =    30

 MAXIMUM STEPSIZE WHICH MEETS STABILITY CRITERION OF THE SINK & SOURCE TERM
 =  12.72    (WHEN MIN. R.F.=1)  AT K=  17, I=   1, J=  91

 MAXIMUM STEPSIZE WHICH MEETS STABILITY CRITERION OF THE DISPERSION TERM
 =  4.792    (WHEN MIN. R.F.=1)  AT K=  16, I=   1, J=  89
     1 CALLS TO GCG PACKAGE FOR TRANSPORT TIME STEP 257 IN FLOW TIME STEP   1 STRESS PERIOD   1
     4 TOTAL ITERATIONS
0WARNING: NUMERICAL OSCILLATION ENCOUNTERED
 ONE OR MORE CELL CONCENTRATIONS LESS THAN CRHOREF
 SMALLEST DENSITY =  0.100E+04
 AT CELL (I,J,K) = (   1,  67,   8)

 
 SOLVING FOR HEAD 


     2 CALLS TO PCG ROUTINE FOR TIME STEP   1 IN STRESS PERIOD    1
     4 TOTAL ITERATIONS

 MAXIMUM HEAD CHANGE FOR EACH ITERATION (1 INDICATES THE FIRST INNER ITERATION):

    HEAD CHANGE    HEAD CHANGE    HEAD CHANGE    HEAD CHANGE    HEAD CHANGE 
   LAYER,ROW,COL  LAYER,ROW,COL  LAYER,ROW,COL  LAYER,ROW,COL  LAYER,ROW,COL
 ---------------------------------------------------------------------------
  1 -0.1588E-02  0  0.1628E-02  0  0.8106E-03  1  0.2067E-03
   ( 10,  1, 12)  ( 10,  1, 12)  ( 11,  1, 64)  ( 11,  1, 53)

 MAXIMUM RESIDUAL FOR EACH ITERATION (1 INDICATES THE FIRST INNER ITERATION):

    RESIDUAL       RESIDUAL       RESIDUAL       RESIDUAL       RESIDUAL    
   LAYER,ROW,COL  LAYER,ROW,COL  LAYER,ROW,COL  LAYER,ROW,COL  LAYER,ROW,COL
 ---------------------------------------------------------------------------
  1  -7144.      0  -1520.      0  -692.8      1  -647.6    
   ( 20,  1, 85)  ( 22,  1, 55)  ( 19,  1, 86)  ( 19,  1, 86)


 FLOW MODEL IS TRANSIENT
 FLOW MODEL CONTAINS CONSTANT-HEAD CELLS


 MAXIMUM STEPSIZE DURING WHICH ANY PARTICLE CANNOT MOVE MORE THAN ONE CELL
 =  15.60    (WHEN MIN. R.F.=1)  AT K=  18, I=   1, J=  91

 MAXIMUM STEPSIZE WHICH MEETS STABILITY CRITERION OF THE ADVECTION TERM
 (FOR PURE FINITE-DIFFERENCE OPTION, MIXELM=0) 
 =  9.015    (WHEN MIN. R.F.=1)  AT K=  16, I=   1, J=  90


 TOTAL NUMBER OF POINT SOURCES/SINKS PRESENT IN THE FLOW MODEL =    30

 MAXIMUM STEPSIZE WHICH MEETS STABILITY CRITERION OF THE SINK & SOURCE TERM
 =  12.71    (WHEN MIN. R.F.=1)  AT K=  17, I=   1, J=  91

 MAXIMUM STEPSIZE WHICH MEETS STABILITY CRITERION OF THE DISPERSION TERM
 =  4.787    (WHEN MIN. R.F.=1)  AT K=  16, I=   1, J=  89
     1 CALLS TO GCG PACKAGE FOR TRANSPORT TIME STEP 258 IN FLOW TIME STEP   1 STRESS PERIOD   1
     4 TOTAL ITERATIONS
0WARNING: NUMERICAL OSCILLATION ENCOUNTERED
 ONE OR MORE CELL CONCENTRATIONS LESS THAN CRHOREF
 SMALLEST DENSITY =  0.100E+04
 AT CELL (I,J,K) = (   1,  67,   8)

 
 SOLVING FOR HEAD 


     2 CALLS TO PCG ROUTINE FOR TIME STEP   1 IN STRESS PERIOD    1
     3 TOTAL ITERATIONS

 MAXIMUM HEAD CHANGE FOR EACH ITERATION (1 INDICATES THE FIRST INNER ITERATION):

    HEAD CHANGE    HEAD CHANGE    HEAD CHANGE    HEAD CHANGE    HEAD CHANGE 
   LAYER,ROW,COL  LAYER,ROW,COL  LAYER,ROW,COL  LAYER,ROW,COL  LAYER,ROW,COL
 ---------------------------------------------------------------------------
  1 -0.9971E-03  0  0.8797E-03  1 -0.5383E-03
   ( 16,  1, 69)  ( 19,  1, 70)  ( 10,  1, 12)

 MAXIMUM RESIDUAL FOR EACH ITERATION (1 INDICATES THE FIRST INNER ITERATION):

    RESIDUAL       RESIDUAL       RESIDUAL       RESIDUAL       RESIDUAL    
   LAYER,ROW,COL  LAYER,ROW,COL  LAYER,ROW,COL  LAYER,ROW,COL  LAYER,ROW,COL
 ---------------------------------------------------------------------------
  1 -0.1039E+05  0  -910.0      1  -892.7    
   ( 22,  1, 55)  ( 18,  1, 86)  ( 18,  1, 86)


 FLOW MODEL IS TRANSIENT
 FLOW MODEL CONTAINS CONSTANT-HEAD CELLS


 MAXIMUM STEPSIZE DURING WHICH ANY PARTICLE CANNOT MOVE MORE THAN ONE CELL
 =  15.58    (WHEN MIN. R.F.=1)  AT K=  18, I=   1, J=  91

 MAXIMUM STEPSIZE WHICH MEETS STABILITY CRITERION OF THE ADVECTION TERM
 (FOR PURE FINITE-DIFFERENCE OPTION, MIXELM=0) 
 =  9.010    (WHEN MIN. R.F.=1)  AT K=  16, I=   1, J=  90


 TOTAL NUMBER OF POINT SOURCES/SINKS PRESENT IN THE FLOW MODEL =    30

 MAXIMUM STEPSIZE WHICH MEETS STABILITY CRITERION OF THE SINK & SOURCE TERM
 =  12.70    (WHEN MIN. R.F.=1)  AT K=  17, I=   1, J=  91

 MAXIMUM STEPSIZE WHICH MEETS STABILITY CRITERION OF THE DISPERSION TERM
 =  4.785    (WHEN MIN. R.F.=1)  AT K=  16, I=   1, J=  89
     1 CALLS TO GCG PACKAGE FOR TRANSPORT TIME STEP 259 IN FLOW TIME STEP   1 STRESS PERIOD   1
     4 TOTAL ITERATIONS
0WARNING: NUMERICAL OSCILLATION ENCOUNTERED
 ONE OR MORE CELL CONCENTRATIONS LESS THAN CRHOREF
 SMALLEST DENSITY =  0.100E+04
 AT CELL (I,J,K) = (   1,  67,   8)

 
 SOLVING FOR HEAD 


     2 CALLS TO PCG ROUTINE FOR TIME STEP   1 IN STRESS PERIOD    1
     5 TOTAL ITERATIONS

 MAXIMUM HEAD CHANGE FOR EACH ITERATION (1 INDICATES THE FIRST INNER ITERATION):

    HEAD CHANGE    HEAD CHANGE    HEAD CHANGE    HEAD CHANGE    HEAD CHANGE 
   LAYER,ROW,COL  LAYER,ROW,COL  LAYER,ROW,COL  LAYER,ROW,COL  LAYER,ROW,COL
 ---------------------------------------------------------------------------
  1 -0.1767E-02  0 -0.1055E-02  0  0.1828E-02  0  0.5564E-03  1  0.2593E-03
   ( 11,  1, 54)  ( 10,  1, 12)  ( 11,  1, 53)  ( 11,  1, 67)  ( 11,  1, 70)

 MAXIMUM RESIDUAL FOR EACH ITERATION (1 INDICATES THE FIRST INNER ITERATION):

    RESIDUAL       RESIDUAL       RESIDUAL       RESIDUAL       RESIDUAL    
   LAYER,ROW,COL  LAYER,ROW,COL  LAYER,ROW,COL  LAYER,ROW,COL  LAYER,ROW,COL
 ---------------------------------------------------------------------------
  1 -0.1090E+05  0  -8279.      0   689.3      0   523.5      1   375.1    
   ( 22,  1, 55)  ( 22,  1, 55)  ( 21,  1, 54)  ( 22,  1, 94)  ( 22,  1, 94)


 FLOW MODEL IS TRANSIENT
 FLOW MODEL CONTAINS CONSTANT-HEAD CELLS


 MAXIMUM STEPSIZE DURING WHICH ANY PARTICLE CANNOT MOVE MORE THAN ONE CELL
 =  15.57    (WHEN MIN. R.F.=1)  AT K=  18, I=   1, J=  91

 MAXIMUM STEPSIZE WHICH MEETS STABILITY CRITERION OF THE ADVECTION TERM
 (FOR PURE FINITE-DIFFERENCE OPTION, MIXELM=0) 
 =  9.004    (WHEN MIN. R.F.=1)  AT K=  16, I=   1, J=  90


 TOTAL NUMBER OF POINT SOURCES/SINKS PRESENT IN THE FLOW MODEL =    30

 MAXIMUM STEPSIZE WHICH MEETS STABILITY CRITERION OF THE SINK & SOURCE TERM
 =  12.69    (WHEN MIN. R.F.=1)  AT K=  17, I=   1, J=  91

 MAXIMUM STEPSIZE WHICH MEETS STABILITY CRITERION OF THE DISPERSION TERM
 =  4.782    (WHEN MIN. R.F.=1)  AT K=  16, I=   1, J=  89
     1 CALLS TO GCG PACKAGE FOR TRANSPORT TIME STEP 260 IN FLOW TIME STEP   1 STRESS PERIOD   1
     4 TOTAL ITERATIONS
  MAXIMUM CONCENTRATION CHANGES FOR EACH ITERATION:
  MAX. CHANGE LAYER,ROW,COL MAX. CHANGE LAYER,ROW,COL MAX. CHANGE LAYER,ROW,COL MAX. CHANGE LAYER,ROW,COL MAX. CHANGE LAYER,ROW,COL
 ------------------------------------------------------------------------------------------------------------------------------------
   0.3300     ( 16,  1, 90)  0.6888E-03 ( 17,  1, 89)  0.1792E-04 ( 16,  1, 89)  0.1287E-06 ( 17,  1, 88)



 >>>>>>>>>>>>>>>>>>>>>>>>>>>>>>>>>>>>>>>>>>>>>>>>>>>>>>>FOR COMPONENT NO. 01<<<<<<<<<<<<<<<<<<<<<<<<<<<<<<<<<<<<<<<<<<<<<<<<<<<<<<<


                                            -------------------------------------------
                                                      TRANSPORT STEP NO.  260
                                            -------------------------------------------

 TOTAL ELAPSED TIME SINCE BEGINNING OF SIMULATION =   1760.032    D   
 .....................................................................

                     CUMMULATIVE MASS BUDGETS AT END OF TRANSPORT STEP  260, TIME STEP    1, STRESS PERIOD    1
                     ------------------------------------------------------------------------------------------

                                                             IN                           OUT
                                                      ----------------             ----------------
                               CONSTANT CONCENTRATION:    0.000000                    0.000000    
                                        CONSTANT HEAD:   0.3416398E+08              -0.3726314E+08
                                             RECHARGE:    0.000000                    0.000000    
                                MASS STORAGE (SOLUTE):   0.2564539E+08              -0.2254624E+08
                            ---------------------------------------------------------------------------
                                              [TOTAL]:   0.5981053E+08 KG           -0.5981053E+08 KG  

                                                          NET (IN - OUT):    1.369404    
                                                   DISCREPANCY (PERCENT):   0.2289571E-05
0WARNING: NUMERICAL OSCILLATION ENCOUNTERED
 ONE OR MORE CELL CONCENTRATIONS LESS THAN CRHOREF
 SMALLEST DENSITY =  0.100E+04
 AT CELL (I,J,K) = (   1,  67,   8)

 
 SOLVING FOR HEAD 


     2 CALLS TO PCG ROUTINE FOR TIME STEP   1 IN STRESS PERIOD    1
     3 TOTAL ITERATIONS

 MAXIMUM HEAD CHANGE FOR EACH ITERATION (1 INDICATES THE FIRST INNER ITERATION):

    HEAD CHANGE    HEAD CHANGE    HEAD CHANGE    HEAD CHANGE    HEAD CHANGE 
   LAYER,ROW,COL  LAYER,ROW,COL  LAYER,ROW,COL  LAYER,ROW,COL  LAYER,ROW,COL
 ---------------------------------------------------------------------------
  1 -0.9765E-03  0 -0.9442E-03  1  0.9418E-03
   ( 23,  1, 70)  ( 10,  1, 12)  ( 10,  1, 12)

 MAXIMUM RESIDUAL FOR EACH ITERATION (1 INDICATES THE FIRST INNER ITERATION):

    RESIDUAL       RESIDUAL       RESIDUAL       RESIDUAL       RESIDUAL    
   LAYER,ROW,COL  LAYER,ROW,COL  LAYER,ROW,COL  LAYER,ROW,COL  LAYER,ROW,COL
 ---------------------------------------------------------------------------
  1 -0.1023E+05  0  -2640.      1  -2648.    
   ( 22,  1, 55)  ( 22,  1, 55)  ( 22,  1, 55)


 FLOW MODEL IS TRANSIENT
 FLOW MODEL CONTAINS CONSTANT-HEAD CELLS


 MAXIMUM STEPSIZE DURING WHICH ANY PARTICLE CANNOT MOVE MORE THAN ONE CELL
 =  15.56    (WHEN MIN. R.F.=1)  AT K=  18, I=   1, J=  91

 MAXIMUM STEPSIZE WHICH MEETS STABILITY CRITERION OF THE ADVECTION TERM
 (FOR PURE FINITE-DIFFERENCE OPTION, MIXELM=0) 
 =  8.997    (WHEN MIN. R.F.=1)  AT K=  16, I=   1, J=  90


 TOTAL NUMBER OF POINT SOURCES/SINKS PRESENT IN THE FLOW MODEL =    30

 MAXIMUM STEPSIZE WHICH MEETS STABILITY CRITERION OF THE SINK & SOURCE TERM
 =  12.68    (WHEN MIN. R.F.=1)  AT K=  17, I=   1, J=  91

 MAXIMUM STEPSIZE WHICH MEETS STABILITY CRITERION OF THE DISPERSION TERM
 =  4.780    (WHEN MIN. R.F.=1)  AT K=  16, I=   1, J=  89
     1 CALLS TO GCG PACKAGE FOR TRANSPORT TIME STEP 261 IN FLOW TIME STEP   1 STRESS PERIOD   1
     4 TOTAL ITERATIONS
0WARNING: NUMERICAL OSCILLATION ENCOUNTERED
 ONE OR MORE CELL CONCENTRATIONS LESS THAN CRHOREF
 SMALLEST DENSITY =  0.100E+04
 AT CELL (I,J,K) = (   1,  67,   8)

 
 SOLVING FOR HEAD 


     2 CALLS TO PCG ROUTINE FOR TIME STEP   1 IN STRESS PERIOD    1
     4 TOTAL ITERATIONS

 MAXIMUM HEAD CHANGE FOR EACH ITERATION (1 INDICATES THE FIRST INNER ITERATION):

    HEAD CHANGE    HEAD CHANGE    HEAD CHANGE    HEAD CHANGE    HEAD CHANGE 
   LAYER,ROW,COL  LAYER,ROW,COL  LAYER,ROW,COL  LAYER,ROW,COL  LAYER,ROW,COL
 ---------------------------------------------------------------------------
  1 -0.1446E-02  0  0.1466E-02  0  0.7178E-03  1  0.2850E-03
   ( 10,  1, 12)  ( 10,  1, 12)  ( 11,  1, 58)  ( 11,  1, 69)

 MAXIMUM RESIDUAL FOR EACH ITERATION (1 INDICATES THE FIRST INNER ITERATION):

    RESIDUAL       RESIDUAL       RESIDUAL       RESIDUAL       RESIDUAL    
   LAYER,ROW,COL  LAYER,ROW,COL  LAYER,ROW,COL  LAYER,ROW,COL  LAYER,ROW,COL
 ---------------------------------------------------------------------------
  1  -5686.      0   1610.      0   906.8      1   763.0    
   ( 20,  1, 85)  ( 21,  1, 85)  ( 21,  1, 85)  ( 21,  1, 85)


 FLOW MODEL IS TRANSIENT
 FLOW MODEL CONTAINS CONSTANT-HEAD CELLS


 MAXIMUM STEPSIZE DURING WHICH ANY PARTICLE CANNOT MOVE MORE THAN ONE CELL
 =  15.54    (WHEN MIN. R.F.=1)  AT K=  18, I=   1, J=  91

 MAXIMUM STEPSIZE WHICH MEETS STABILITY CRITERION OF THE ADVECTION TERM
 (FOR PURE FINITE-DIFFERENCE OPTION, MIXELM=0) 
 =  8.990    (WHEN MIN. R.F.=1)  AT K=  16, I=   1, J=  90


 TOTAL NUMBER OF POINT SOURCES/SINKS PRESENT IN THE FLOW MODEL =    30

 MAXIMUM STEPSIZE WHICH MEETS STABILITY CRITERION OF THE SINK & SOURCE TERM
 =  12.66    (WHEN MIN. R.F.=1)  AT K=  17, I=   1, J=  91

 MAXIMUM STEPSIZE WHICH MEETS STABILITY CRITERION OF THE DISPERSION TERM
 =  4.776    (WHEN MIN. R.F.=1)  AT K=  16, I=   1, J=  89
     1 CALLS TO GCG PACKAGE FOR TRANSPORT TIME STEP 262 IN FLOW TIME STEP   1 STRESS PERIOD   1
     4 TOTAL ITERATIONS
0WARNING: NUMERICAL OSCILLATION ENCOUNTERED
 ONE OR MORE CELL CONCENTRATIONS LESS THAN CRHOREF
 SMALLEST DENSITY =  0.100E+04
 AT CELL (I,J,K) = (   1,  67,   8)

 
 SOLVING FOR HEAD 


     1 CALLS TO PCG ROUTINE FOR TIME STEP   1 IN STRESS PERIOD    1
     1 TOTAL ITERATIONS

 MAXIMUM HEAD CHANGE FOR EACH ITERATION (1 INDICATES THE FIRST INNER ITERATION):

    HEAD CHANGE    HEAD CHANGE    HEAD CHANGE    HEAD CHANGE    HEAD CHANGE 
   LAYER,ROW,COL  LAYER,ROW,COL  LAYER,ROW,COL  LAYER,ROW,COL  LAYER,ROW,COL
 ---------------------------------------------------------------------------
  1 -0.9534E-03
   ( 16,  1, 69)

 MAXIMUM RESIDUAL FOR EACH ITERATION (1 INDICATES THE FIRST INNER ITERATION):

    RESIDUAL       RESIDUAL       RESIDUAL       RESIDUAL       RESIDUAL    
   LAYER,ROW,COL  LAYER,ROW,COL  LAYER,ROW,COL  LAYER,ROW,COL  LAYER,ROW,COL
 ---------------------------------------------------------------------------
  1  -9782.    
   ( 22,  1, 55)


 FLOW MODEL IS TRANSIENT
 FLOW MODEL CONTAINS CONSTANT-HEAD CELLS


 MAXIMUM STEPSIZE DURING WHICH ANY PARTICLE CANNOT MOVE MORE THAN ONE CELL
 =  15.55    (WHEN MIN. R.F.=1)  AT K=  18, I=   1, J=  91

 MAXIMUM STEPSIZE WHICH MEETS STABILITY CRITERION OF THE ADVECTION TERM
 (FOR PURE FINITE-DIFFERENCE OPTION, MIXELM=0) 
 =  8.978    (WHEN MIN. R.F.=1)  AT K=  16, I=   1, J=  90


 TOTAL NUMBER OF POINT SOURCES/SINKS PRESENT IN THE FLOW MODEL =    30

 MAXIMUM STEPSIZE WHICH MEETS STABILITY CRITERION OF THE SINK & SOURCE TERM
 =  12.67    (WHEN MIN. R.F.=1)  AT K=  17, I=   1, J=  91

 MAXIMUM STEPSIZE WHICH MEETS STABILITY CRITERION OF THE DISPERSION TERM
 =  4.773    (WHEN MIN. R.F.=1)  AT K=  16, I=   1, J=  89
     1 CALLS TO GCG PACKAGE FOR TRANSPORT TIME STEP 263 IN FLOW TIME STEP   1 STRESS PERIOD   1
     4 TOTAL ITERATIONS
0WARNING: NUMERICAL OSCILLATION ENCOUNTERED
 ONE OR MORE CELL CONCENTRATIONS LESS THAN CRHOREF
 SMALLEST DENSITY =  0.100E+04
 AT CELL (I,J,K) = (   1,  67,   8)

 
 SOLVING FOR HEAD 


     2 CALLS TO PCG ROUTINE FOR TIME STEP   1 IN STRESS PERIOD    1
     6 TOTAL ITERATIONS

 MAXIMUM HEAD CHANGE FOR EACH ITERATION (1 INDICATES THE FIRST INNER ITERATION):

    HEAD CHANGE    HEAD CHANGE    HEAD CHANGE    HEAD CHANGE    HEAD CHANGE 
   LAYER,ROW,COL  LAYER,ROW,COL  LAYER,ROW,COL  LAYER,ROW,COL  LAYER,ROW,COL
 ---------------------------------------------------------------------------
  1  0.2773E-02  0 -0.2687E-02  0 -0.3527E-02  0 -0.1003E-02  0  0.5366E-03
   ( 11,  1, 66)  ( 10,  1, 12)  ( 11,  1, 66)  ( 11,  1, 56)  ( 11,  1, 65)
  1 -0.2206E-03
   ( 11,  1, 65)

 MAXIMUM RESIDUAL FOR EACH ITERATION (1 INDICATES THE FIRST INNER ITERATION):

    RESIDUAL       RESIDUAL       RESIDUAL       RESIDUAL       RESIDUAL    
   LAYER,ROW,COL  LAYER,ROW,COL  LAYER,ROW,COL  LAYER,ROW,COL  LAYER,ROW,COL
 ---------------------------------------------------------------------------
  1 -0.6334E+05  0 -0.5159E+05  0  -3174.      0  -2723.      0  -1971.    
   ( 20,  1, 85)  ( 20,  1, 85)  ( 19,  1, 86)  ( 19,  1, 86)  ( 19,  1, 86)
  1  -1571.    
   ( 19,  1, 86)


 FLOW MODEL IS TRANSIENT
 FLOW MODEL CONTAINS CONSTANT-HEAD CELLS


 MAXIMUM STEPSIZE DURING WHICH ANY PARTICLE CANNOT MOVE MORE THAN ONE CELL
 =  15.42    (WHEN MIN. R.F.=1)  AT K=  18, I=   1, J=  91

 MAXIMUM STEPSIZE WHICH MEETS STABILITY CRITERION OF THE ADVECTION TERM
 (FOR PURE FINITE-DIFFERENCE OPTION, MIXELM=0) 
 =  8.951    (WHEN MIN. R.F.=1)  AT K=  16, I=   1, J=  90


 TOTAL NUMBER OF POINT SOURCES/SINKS PRESENT IN THE FLOW MODEL =    30

 MAXIMUM STEPSIZE WHICH MEETS STABILITY CRITERION OF THE SINK & SOURCE TERM
 =  12.58    (WHEN MIN. R.F.=1)  AT K=  17, I=   1, J=  91

 MAXIMUM STEPSIZE WHICH MEETS STABILITY CRITERION OF THE DISPERSION TERM
 =  4.770    (WHEN MIN. R.F.=1)  AT K=  16, I=   1, J=  89
     1 CALLS TO GCG PACKAGE FOR TRANSPORT TIME STEP 264 IN FLOW TIME STEP   1 STRESS PERIOD   1
     4 TOTAL ITERATIONS
0WARNING: NUMERICAL OSCILLATION ENCOUNTERED
 ONE OR MORE CELL CONCENTRATIONS LESS THAN CRHOREF
 SMALLEST DENSITY =  0.100E+04
 AT CELL (I,J,K) = (   1,  67,   8)

 
 SOLVING FOR HEAD 


     1 CALLS TO PCG ROUTINE FOR TIME STEP   1 IN STRESS PERIOD    1
     1 TOTAL ITERATIONS

 MAXIMUM HEAD CHANGE FOR EACH ITERATION (1 INDICATES THE FIRST INNER ITERATION):

    HEAD CHANGE    HEAD CHANGE    HEAD CHANGE    HEAD CHANGE    HEAD CHANGE 
   LAYER,ROW,COL  LAYER,ROW,COL  LAYER,ROW,COL  LAYER,ROW,COL  LAYER,ROW,COL
 ---------------------------------------------------------------------------
  1 -0.8906E-03
   ( 16,  1, 68)

 MAXIMUM RESIDUAL FOR EACH ITERATION (1 INDICATES THE FIRST INNER ITERATION):

    RESIDUAL       RESIDUAL       RESIDUAL       RESIDUAL       RESIDUAL    
   LAYER,ROW,COL  LAYER,ROW,COL  LAYER,ROW,COL  LAYER,ROW,COL  LAYER,ROW,COL
 ---------------------------------------------------------------------------
  1  -9602.    
   ( 19,  1, 85)


 FLOW MODEL IS TRANSIENT
 FLOW MODEL CONTAINS CONSTANT-HEAD CELLS


 MAXIMUM STEPSIZE DURING WHICH ANY PARTICLE CANNOT MOVE MORE THAN ONE CELL
 =  15.50    (WHEN MIN. R.F.=1)  AT K=  18, I=   1, J=  91

 MAXIMUM STEPSIZE WHICH MEETS STABILITY CRITERION OF THE ADVECTION TERM
 (FOR PURE FINITE-DIFFERENCE OPTION, MIXELM=0) 
 =  8.956    (WHEN MIN. R.F.=1)  AT K=  16, I=   1, J=  90


 TOTAL NUMBER OF POINT SOURCES/SINKS PRESENT IN THE FLOW MODEL =    30

 MAXIMUM STEPSIZE WHICH MEETS STABILITY CRITERION OF THE SINK & SOURCE TERM
 =  12.62    (WHEN MIN. R.F.=1)  AT K=  17, I=   1, J=  91

 MAXIMUM STEPSIZE WHICH MEETS STABILITY CRITERION OF THE DISPERSION TERM
 =  4.764    (WHEN MIN. R.F.=1)  AT K=  16, I=   1, J=  89
     1 CALLS TO GCG PACKAGE FOR TRANSPORT TIME STEP 265 IN FLOW TIME STEP   1 STRESS PERIOD   1
     4 TOTAL ITERATIONS
  MAXIMUM CONCENTRATION CHANGES FOR EACH ITERATION:
  MAX. CHANGE LAYER,ROW,COL MAX. CHANGE LAYER,ROW,COL MAX. CHANGE LAYER,ROW,COL MAX. CHANGE LAYER,ROW,COL MAX. CHANGE LAYER,ROW,COL
 ------------------------------------------------------------------------------------------------------------------------------------
   0.3298     ( 16,  1, 90)  0.6510E-03 ( 17,  1, 89)  0.1682E-04 ( 16,  1, 89)  0.1324E-06 ( 17,  1, 88)
0WARNING: NUMERICAL OSCILLATION ENCOUNTERED
 ONE OR MORE CELL CONCENTRATIONS LESS THAN CRHOREF
 SMALLEST DENSITY =  0.100E+04
 AT CELL (I,J,K) = (   1,  67,   8)

 
 SOLVING FOR HEAD 


     2 CALLS TO PCG ROUTINE FOR TIME STEP   1 IN STRESS PERIOD    1
     6 TOTAL ITERATIONS

 MAXIMUM HEAD CHANGE FOR EACH ITERATION (1 INDICATES THE FIRST INNER ITERATION):

    HEAD CHANGE    HEAD CHANGE    HEAD CHANGE    HEAD CHANGE    HEAD CHANGE 
   LAYER,ROW,COL  LAYER,ROW,COL  LAYER,ROW,COL  LAYER,ROW,COL  LAYER,ROW,COL
 ---------------------------------------------------------------------------
  1  0.3387E-02  0  0.3016E-02  0 -0.2869E-02  0 -0.1662E-02  0  0.6488E-03
   ( 11,  1, 70)  ( 10,  1, 12)  ( 10,  1, 12)  ( 11,  1, 54)  ( 11,  1, 69)
  1 -0.2915E-03
   ( 11,  1, 69)

 MAXIMUM RESIDUAL FOR EACH ITERATION (1 INDICATES THE FIRST INNER ITERATION):

    RESIDUAL       RESIDUAL       RESIDUAL       RESIDUAL       RESIDUAL    
   LAYER,ROW,COL  LAYER,ROW,COL  LAYER,ROW,COL  LAYER,ROW,COL  LAYER,ROW,COL
 ---------------------------------------------------------------------------
  1  0.6026E+05  0  0.2718E+05  0  -4406.      0   3370.      0   2618.    
   ( 20,  1, 86)  ( 20,  1, 86)  ( 18,  1, 86)  ( 21,  1, 85)  ( 21,  1, 85)
  1   2015.    
   ( 21,  1, 85)


 FLOW MODEL IS TRANSIENT
 FLOW MODEL CONTAINS CONSTANT-HEAD CELLS


 MAXIMUM STEPSIZE DURING WHICH ANY PARTICLE CANNOT MOVE MORE THAN ONE CELL
 =  15.35    (WHEN MIN. R.F.=1)  AT K=  18, I=   1, J=  91

 MAXIMUM STEPSIZE WHICH MEETS STABILITY CRITERION OF THE ADVECTION TERM
 (FOR PURE FINITE-DIFFERENCE OPTION, MIXELM=0) 
 =  8.932    (WHEN MIN. R.F.=1)  AT K=  16, I=   1, J=  90


 TOTAL NUMBER OF POINT SOURCES/SINKS PRESENT IN THE FLOW MODEL =    30

 MAXIMUM STEPSIZE WHICH MEETS STABILITY CRITERION OF THE SINK & SOURCE TERM
 =  12.53    (WHEN MIN. R.F.=1)  AT K=  17, I=   1, J=  91

 MAXIMUM STEPSIZE WHICH MEETS STABILITY CRITERION OF THE DISPERSION TERM
 =  4.761    (WHEN MIN. R.F.=1)  AT K=  16, I=   1, J=  89
     1 CALLS TO GCG PACKAGE FOR TRANSPORT TIME STEP 266 IN FLOW TIME STEP   1 STRESS PERIOD   1
     4 TOTAL ITERATIONS
0WARNING: NUMERICAL OSCILLATION ENCOUNTERED
 ONE OR MORE CELL CONCENTRATIONS LESS THAN CRHOREF
 SMALLEST DENSITY =  0.100E+04
 AT CELL (I,J,K) = (   1,  67,   8)

 
 SOLVING FOR HEAD 


     2 CALLS TO PCG ROUTINE FOR TIME STEP   1 IN STRESS PERIOD    1
     4 TOTAL ITERATIONS

 MAXIMUM HEAD CHANGE FOR EACH ITERATION (1 INDICATES THE FIRST INNER ITERATION):

    HEAD CHANGE    HEAD CHANGE    HEAD CHANGE    HEAD CHANGE    HEAD CHANGE 
   LAYER,ROW,COL  LAYER,ROW,COL  LAYER,ROW,COL  LAYER,ROW,COL  LAYER,ROW,COL
 ---------------------------------------------------------------------------
  1 -0.1106E-02  0  0.1866E-02  0 -0.5110E-03  1  0.1684E-03
   ( 11,  1, 65)  ( 11,  1, 65)  ( 11,  1, 64)  ( 10,  1, 12)

 MAXIMUM RESIDUAL FOR EACH ITERATION (1 INDICATES THE FIRST INNER ITERATION):

    RESIDUAL       RESIDUAL       RESIDUAL       RESIDUAL       RESIDUAL    
   LAYER,ROW,COL  LAYER,ROW,COL  LAYER,ROW,COL  LAYER,ROW,COL  LAYER,ROW,COL
 ---------------------------------------------------------------------------
  1 -0.1225E+05  0  -1984.      0  -1622.      1  -1594.    
   ( 16,  1, 86)  ( 16,  1, 86)  ( 18,  1, 86)  ( 18,  1, 86)


 FLOW MODEL IS TRANSIENT
 FLOW MODEL CONTAINS CONSTANT-HEAD CELLS


 MAXIMUM STEPSIZE DURING WHICH ANY PARTICLE CANNOT MOVE MORE THAN ONE CELL
 =  15.43    (WHEN MIN. R.F.=1)  AT K=  18, I=   1, J=  91

 MAXIMUM STEPSIZE WHICH MEETS STABILITY CRITERION OF THE ADVECTION TERM
 (FOR PURE FINITE-DIFFERENCE OPTION, MIXELM=0) 
 =  8.948    (WHEN MIN. R.F.=1)  AT K=  16, I=   1, J=  90


 TOTAL NUMBER OF POINT SOURCES/SINKS PRESENT IN THE FLOW MODEL =    30

 MAXIMUM STEPSIZE WHICH MEETS STABILITY CRITERION OF THE SINK & SOURCE TERM
 =  12.58    (WHEN MIN. R.F.=1)  AT K=  17, I=   1, J=  91

 MAXIMUM STEPSIZE WHICH MEETS STABILITY CRITERION OF THE DISPERSION TERM
 =  4.758    (WHEN MIN. R.F.=1)  AT K=  16, I=   1, J=  89
     1 CALLS TO GCG PACKAGE FOR TRANSPORT TIME STEP 267 IN FLOW TIME STEP   1 STRESS PERIOD   1
     4 TOTAL ITERATIONS
0WARNING: NUMERICAL OSCILLATION ENCOUNTERED
 ONE OR MORE CELL CONCENTRATIONS LESS THAN CRHOREF
 SMALLEST DENSITY =  0.100E+04
 AT CELL (I,J,K) = (   1,  67,   8)

 
 SOLVING FOR HEAD 


     2 CALLS TO PCG ROUTINE FOR TIME STEP   1 IN STRESS PERIOD    1
     5 TOTAL ITERATIONS

 MAXIMUM HEAD CHANGE FOR EACH ITERATION (1 INDICATES THE FIRST INNER ITERATION):

    HEAD CHANGE    HEAD CHANGE    HEAD CHANGE    HEAD CHANGE    HEAD CHANGE 
   LAYER,ROW,COL  LAYER,ROW,COL  LAYER,ROW,COL  LAYER,ROW,COL  LAYER,ROW,COL
 ---------------------------------------------------------------------------
  1 -0.1696E-02  0  0.1071E-02  0  0.1687E-02  0 -0.5923E-03  1 -0.4272E-03
   ( 11,  1, 65)  ( 10,  1, 12)  ( 11,  1, 65)  ( 11,  1, 64)  ( 11,  1, 70)

 MAXIMUM RESIDUAL FOR EACH ITERATION (1 INDICATES THE FIRST INNER ITERATION):

    RESIDUAL       RESIDUAL       RESIDUAL       RESIDUAL       RESIDUAL    
   LAYER,ROW,COL  LAYER,ROW,COL  LAYER,ROW,COL  LAYER,ROW,COL  LAYER,ROW,COL
 ---------------------------------------------------------------------------
  1   9233.      0  -7458.      0   2934.      0   2348.      1   1759.    
   ( 23,  1, 90)  ( 22,  1, 55)  ( 22,  1, 91)  ( 22,  1, 91)  ( 22,  1, 91)


 FLOW MODEL IS TRANSIENT
 FLOW MODEL CONTAINS CONSTANT-HEAD CELLS


 MAXIMUM STEPSIZE DURING WHICH ANY PARTICLE CANNOT MOVE MORE THAN ONE CELL
 =  15.33    (WHEN MIN. R.F.=1)  AT K=  18, I=   1, J=  91

 MAXIMUM STEPSIZE WHICH MEETS STABILITY CRITERION OF THE ADVECTION TERM
 (FOR PURE FINITE-DIFFERENCE OPTION, MIXELM=0) 
 =  8.935    (WHEN MIN. R.F.=1)  AT K=  16, I=   1, J=  90


 TOTAL NUMBER OF POINT SOURCES/SINKS PRESENT IN THE FLOW MODEL =    30

 MAXIMUM STEPSIZE WHICH MEETS STABILITY CRITERION OF THE SINK & SOURCE TERM
 =  12.51    (WHEN MIN. R.F.=1)  AT K=  17, I=   1, J=  91

 MAXIMUM STEPSIZE WHICH MEETS STABILITY CRITERION OF THE DISPERSION TERM
 =  4.757    (WHEN MIN. R.F.=1)  AT K=  16, I=   1, J=  89
     1 CALLS TO GCG PACKAGE FOR TRANSPORT TIME STEP 268 IN FLOW TIME STEP   1 STRESS PERIOD   1
     4 TOTAL ITERATIONS
0WARNING: NUMERICAL OSCILLATION ENCOUNTERED
 ONE OR MORE CELL CONCENTRATIONS LESS THAN CRHOREF
 SMALLEST DENSITY =  0.100E+04
 AT CELL (I,J,K) = (   1,  67,   8)

 
 SOLVING FOR HEAD 


     2 CALLS TO PCG ROUTINE FOR TIME STEP   1 IN STRESS PERIOD    1
     4 TOTAL ITERATIONS

 MAXIMUM HEAD CHANGE FOR EACH ITERATION (1 INDICATES THE FIRST INNER ITERATION):

    HEAD CHANGE    HEAD CHANGE    HEAD CHANGE    HEAD CHANGE    HEAD CHANGE 
   LAYER,ROW,COL  LAYER,ROW,COL  LAYER,ROW,COL  LAYER,ROW,COL  LAYER,ROW,COL
 ---------------------------------------------------------------------------
  1 -0.1676E-02  0  0.2030E-02  0  0.8347E-03  1 -0.7195E-03
   ( 11,  1, 64)  ( 11,  1, 64)  ( 10,  1, 12)  ( 11,  1, 63)

 MAXIMUM RESIDUAL FOR EACH ITERATION (1 INDICATES THE FIRST INNER ITERATION):

    RESIDUAL       RESIDUAL       RESIDUAL       RESIDUAL       RESIDUAL    
   LAYER,ROW,COL  LAYER,ROW,COL  LAYER,ROW,COL  LAYER,ROW,COL  LAYER,ROW,COL
 ---------------------------------------------------------------------------
  1  -9338.      0  -2518.      0  -2369.      1  -2059.    
   ( 23,  1, 86)  ( 21,  1, 91)  ( 22,  1, 91)  ( 22,  1, 91)


 FLOW MODEL IS TRANSIENT
 FLOW MODEL CONTAINS CONSTANT-HEAD CELLS


 MAXIMUM STEPSIZE DURING WHICH ANY PARTICLE CANNOT MOVE MORE THAN ONE CELL
 =  15.41    (WHEN MIN. R.F.=1)  AT K=  18, I=   1, J=  91

 MAXIMUM STEPSIZE WHICH MEETS STABILITY CRITERION OF THE ADVECTION TERM
 (FOR PURE FINITE-DIFFERENCE OPTION, MIXELM=0) 
 =  8.947    (WHEN MIN. R.F.=1)  AT K=  16, I=   1, J=  90


 TOTAL NUMBER OF POINT SOURCES/SINKS PRESENT IN THE FLOW MODEL =    30

 MAXIMUM STEPSIZE WHICH MEETS STABILITY CRITERION OF THE SINK & SOURCE TERM
 =  12.57    (WHEN MIN. R.F.=1)  AT K=  17, I=   1, J=  91

 MAXIMUM STEPSIZE WHICH MEETS STABILITY CRITERION OF THE DISPERSION TERM
 =  4.753    (WHEN MIN. R.F.=1)  AT K=  16, I=   1, J=  89
     1 CALLS TO GCG PACKAGE FOR TRANSPORT TIME STEP 269 IN FLOW TIME STEP   1 STRESS PERIOD   1
     4 TOTAL ITERATIONS
0WARNING: NUMERICAL OSCILLATION ENCOUNTERED
 ONE OR MORE CELL CONCENTRATIONS LESS THAN CRHOREF
 SMALLEST DENSITY =  0.100E+04
 AT CELL (I,J,K) = (   1,  67,   8)

 
 SOLVING FOR HEAD 


     2 CALLS TO PCG ROUTINE FOR TIME STEP   1 IN STRESS PERIOD    1
     5 TOTAL ITERATIONS

 MAXIMUM HEAD CHANGE FOR EACH ITERATION (1 INDICATES THE FIRST INNER ITERATION):

    HEAD CHANGE    HEAD CHANGE    HEAD CHANGE    HEAD CHANGE    HEAD CHANGE 
   LAYER,ROW,COL  LAYER,ROW,COL  LAYER,ROW,COL  LAYER,ROW,COL  LAYER,ROW,COL
 ---------------------------------------------------------------------------
  1  0.1483E-02  0 -0.1489E-02  0  0.1293E-02  0 -0.5273E-03  1 -0.5200E-03
   ( 10,  1, 12)  ( 10,  1, 12)  ( 11,  1, 64)  ( 11,  1, 64)  ( 11,  1, 70)

 MAXIMUM RESIDUAL FOR EACH ITERATION (1 INDICATES THE FIRST INNER ITERATION):

    RESIDUAL       RESIDUAL       RESIDUAL       RESIDUAL       RESIDUAL    
   LAYER,ROW,COL  LAYER,ROW,COL  LAYER,ROW,COL  LAYER,ROW,COL  LAYER,ROW,COL
 ---------------------------------------------------------------------------
  1 -0.2893E+05  0  -6877.      0   3171.      0   2237.      1   1804.    
   ( 23,  1, 91)  ( 19,  1, 85)  ( 22,  1, 91)  ( 22,  1, 91)  ( 22,  1, 91)


 FLOW MODEL IS TRANSIENT
 FLOW MODEL CONTAINS CONSTANT-HEAD CELLS


 MAXIMUM STEPSIZE DURING WHICH ANY PARTICLE CANNOT MOVE MORE THAN ONE CELL
 =  15.29    (WHEN MIN. R.F.=1)  AT K=  18, I=   1, J=  91

 MAXIMUM STEPSIZE WHICH MEETS STABILITY CRITERION OF THE ADVECTION TERM
 (FOR PURE FINITE-DIFFERENCE OPTION, MIXELM=0) 
 =  8.932    (WHEN MIN. R.F.=1)  AT K=  16, I=   1, J=  90


 TOTAL NUMBER OF POINT SOURCES/SINKS PRESENT IN THE FLOW MODEL =    30

 MAXIMUM STEPSIZE WHICH MEETS STABILITY CRITERION OF THE SINK & SOURCE TERM
 =  12.49    (WHEN MIN. R.F.=1)  AT K=  17, I=   1, J=  91

 MAXIMUM STEPSIZE WHICH MEETS STABILITY CRITERION OF THE DISPERSION TERM
 =  4.752    (WHEN MIN. R.F.=1)  AT K=  16, I=   1, J=  89
     1 CALLS TO GCG PACKAGE FOR TRANSPORT TIME STEP 270 IN FLOW TIME STEP   1 STRESS PERIOD   1
     4 TOTAL ITERATIONS
  MAXIMUM CONCENTRATION CHANGES FOR EACH ITERATION:
  MAX. CHANGE LAYER,ROW,COL MAX. CHANGE LAYER,ROW,COL MAX. CHANGE LAYER,ROW,COL MAX. CHANGE LAYER,ROW,COL MAX. CHANGE LAYER,ROW,COL
 ------------------------------------------------------------------------------------------------------------------------------------
   0.3302     ( 16,  1, 90)  0.6854E-03 ( 17,  1, 89)  0.1787E-04 ( 16,  1, 89)  0.1284E-06 ( 17,  1, 88)



 >>>>>>>>>>>>>>>>>>>>>>>>>>>>>>>>>>>>>>>>>>>>>>>>>>>>>>>FOR COMPONENT NO. 01<<<<<<<<<<<<<<<<<<<<<<<<<<<<<<<<<<<<<<<<<<<<<<<<<<<<<<<


                                            -------------------------------------------
                                                      TRANSPORT STEP NO.  270
                                            -------------------------------------------

 TOTAL ELAPSED TIME SINCE BEGINNING OF SIMULATION =   1804.851    D   
 .....................................................................

                     CUMMULATIVE MASS BUDGETS AT END OF TRANSPORT STEP  270, TIME STEP    1, STRESS PERIOD    1
                     ------------------------------------------------------------------------------------------

                                                             IN                           OUT
                                                      ----------------             ----------------
                               CONSTANT CONCENTRATION:    0.000000                    0.000000    
                                        CONSTANT HEAD:   0.3593015E+08              -0.3899434E+08
                                             RECHARGE:    0.000000                    0.000000    
                                MASS STORAGE (SOLUTE):   0.2576416E+08              -0.2269997E+08
                            ---------------------------------------------------------------------------
                                              [TOTAL]:   0.6169547E+08 KG           -0.6169547E+08 KG  

                                                          NET (IN - OUT):    1.405762    
                                                   DISCREPANCY (PERCENT):   0.2278550E-05
0WARNING: NUMERICAL OSCILLATION ENCOUNTERED
 ONE OR MORE CELL CONCENTRATIONS LESS THAN CRHOREF
 SMALLEST DENSITY =  0.100E+04
 AT CELL (I,J,K) = (   1,  67,   8)

 
 SOLVING FOR HEAD 


     2 CALLS TO PCG ROUTINE FOR TIME STEP   1 IN STRESS PERIOD    1
     4 TOTAL ITERATIONS

 MAXIMUM HEAD CHANGE FOR EACH ITERATION (1 INDICATES THE FIRST INNER ITERATION):

    HEAD CHANGE    HEAD CHANGE    HEAD CHANGE    HEAD CHANGE    HEAD CHANGE 
   LAYER,ROW,COL  LAYER,ROW,COL  LAYER,ROW,COL  LAYER,ROW,COL  LAYER,ROW,COL
 ---------------------------------------------------------------------------
  1  0.1347E-02  0  0.1563E-02  0  0.8165E-03  1 -0.6191E-03
   ( 11,  1, 69)  ( 11,  1, 63)  ( 10,  1, 12)  ( 11,  1, 62)

 MAXIMUM RESIDUAL FOR EACH ITERATION (1 INDICATES THE FIRST INNER ITERATION):

    RESIDUAL       RESIDUAL       RESIDUAL       RESIDUAL       RESIDUAL    
   LAYER,ROW,COL  LAYER,ROW,COL  LAYER,ROW,COL  LAYER,ROW,COL  LAYER,ROW,COL
 ---------------------------------------------------------------------------
  1  -8709.      0   2815.      0   2654.      1   2303.    
   ( 22,  1, 55)  ( 21,  1, 92)  ( 22,  1, 92)  ( 22,  1, 92)


 FLOW MODEL IS TRANSIENT
 FLOW MODEL CONTAINS CONSTANT-HEAD CELLS


 MAXIMUM STEPSIZE DURING WHICH ANY PARTICLE CANNOT MOVE MORE THAN ONE CELL
 =  15.39    (WHEN MIN. R.F.=1)  AT K=  18, I=   1, J=  91

 MAXIMUM STEPSIZE WHICH MEETS STABILITY CRITERION OF THE ADVECTION TERM
 (FOR PURE FINITE-DIFFERENCE OPTION, MIXELM=0) 
 =  8.949    (WHEN MIN. R.F.=1)  AT K=  16, I=   1, J=  90


 TOTAL NUMBER OF POINT SOURCES/SINKS PRESENT IN THE FLOW MODEL =    30

 MAXIMUM STEPSIZE WHICH MEETS STABILITY CRITERION OF THE SINK & SOURCE TERM
 =  12.56    (WHEN MIN. R.F.=1)  AT K=  17, I=   1, J=  91

 MAXIMUM STEPSIZE WHICH MEETS STABILITY CRITERION OF THE DISPERSION TERM
 =  4.748    (WHEN MIN. R.F.=1)  AT K=  16, I=   1, J=  89
     1 CALLS TO GCG PACKAGE FOR TRANSPORT TIME STEP 271 IN FLOW TIME STEP   1 STRESS PERIOD   1
     4 TOTAL ITERATIONS
0WARNING: NUMERICAL OSCILLATION ENCOUNTERED
 ONE OR MORE CELL CONCENTRATIONS LESS THAN CRHOREF
 SMALLEST DENSITY =  0.100E+04
 AT CELL (I,J,K) = (   1,  67,   8)

 
 SOLVING FOR HEAD 


     2 CALLS TO PCG ROUTINE FOR TIME STEP   1 IN STRESS PERIOD    1
     5 TOTAL ITERATIONS

 MAXIMUM HEAD CHANGE FOR EACH ITERATION (1 INDICATES THE FIRST INNER ITERATION):

    HEAD CHANGE    HEAD CHANGE    HEAD CHANGE    HEAD CHANGE    HEAD CHANGE 
   LAYER,ROW,COL  LAYER,ROW,COL  LAYER,ROW,COL  LAYER,ROW,COL  LAYER,ROW,COL
 ---------------------------------------------------------------------------
  1  0.1619E-02  0 -0.1632E-02  0  0.1192E-02  0 -0.4990E-03  1 -0.3637E-03
   ( 10,  1, 12)  ( 10,  1, 12)  ( 11,  1, 66)  ( 11,  1, 66)  ( 11,  1, 59)

 MAXIMUM RESIDUAL FOR EACH ITERATION (1 INDICATES THE FIRST INNER ITERATION):

    RESIDUAL       RESIDUAL       RESIDUAL       RESIDUAL       RESIDUAL    
   LAYER,ROW,COL  LAYER,ROW,COL  LAYER,ROW,COL  LAYER,ROW,COL  LAYER,ROW,COL
 ---------------------------------------------------------------------------
  1 -0.2865E+05  0  -6448.      0   3369.      0   2050.      1   1720.    
   ( 23,  1, 91)  ( 23,  1, 91)  ( 22,  1, 91)  ( 22,  1, 91)  ( 22,  1, 91)


 FLOW MODEL IS TRANSIENT
 FLOW MODEL CONTAINS CONSTANT-HEAD CELLS


 MAXIMUM STEPSIZE DURING WHICH ANY PARTICLE CANNOT MOVE MORE THAN ONE CELL
 =  15.23    (WHEN MIN. R.F.=1)  AT K=  18, I=   1, J=  91

 MAXIMUM STEPSIZE WHICH MEETS STABILITY CRITERION OF THE ADVECTION TERM
 (FOR PURE FINITE-DIFFERENCE OPTION, MIXELM=0) 
 =  8.925    (WHEN MIN. R.F.=1)  AT K=  16, I=   1, J=  90


 TOTAL NUMBER OF POINT SOURCES/SINKS PRESENT IN THE FLOW MODEL =    30

 MAXIMUM STEPSIZE WHICH MEETS STABILITY CRITERION OF THE SINK & SOURCE TERM
 =  12.45    (WHEN MIN. R.F.=1)  AT K=  17, I=   1, J=  91

 MAXIMUM STEPSIZE WHICH MEETS STABILITY CRITERION OF THE DISPERSION TERM
 =  4.747    (WHEN MIN. R.F.=1)  AT K=  16, I=   1, J=  89
     1 CALLS TO GCG PACKAGE FOR TRANSPORT TIME STEP 272 IN FLOW TIME STEP   1 STRESS PERIOD   1
     4 TOTAL ITERATIONS
0WARNING: NUMERICAL OSCILLATION ENCOUNTERED
 ONE OR MORE CELL CONCENTRATIONS LESS THAN CRHOREF
 SMALLEST DENSITY =  0.100E+04
 AT CELL (I,J,K) = (   1,  67,   8)

 
 SOLVING FOR HEAD 


     1 CALLS TO PCG ROUTINE FOR TIME STEP   1 IN STRESS PERIOD    1
     1 TOTAL ITERATIONS

 MAXIMUM HEAD CHANGE FOR EACH ITERATION (1 INDICATES THE FIRST INNER ITERATION):

    HEAD CHANGE    HEAD CHANGE    HEAD CHANGE    HEAD CHANGE    HEAD CHANGE 
   LAYER,ROW,COL  LAYER,ROW,COL  LAYER,ROW,COL  LAYER,ROW,COL  LAYER,ROW,COL
 ---------------------------------------------------------------------------
  1 -0.9380E-03
   ( 23,  1, 70)

 MAXIMUM RESIDUAL FOR EACH ITERATION (1 INDICATES THE FIRST INNER ITERATION):

    RESIDUAL       RESIDUAL       RESIDUAL       RESIDUAL       RESIDUAL    
   LAYER,ROW,COL  LAYER,ROW,COL  LAYER,ROW,COL  LAYER,ROW,COL  LAYER,ROW,COL
 ---------------------------------------------------------------------------
  1  -8554.    
   ( 22,  1, 55)


 FLOW MODEL IS TRANSIENT
 FLOW MODEL CONTAINS CONSTANT-HEAD CELLS


 MAXIMUM STEPSIZE DURING WHICH ANY PARTICLE CANNOT MOVE MORE THAN ONE CELL
 =  15.37    (WHEN MIN. R.F.=1)  AT K=  18, I=   1, J=  91

 MAXIMUM STEPSIZE WHICH MEETS STABILITY CRITERION OF THE ADVECTION TERM
 (FOR PURE FINITE-DIFFERENCE OPTION, MIXELM=0) 
 =  8.935    (WHEN MIN. R.F.=1)  AT K=  16, I=   1, J=  90


 TOTAL NUMBER OF POINT SOURCES/SINKS PRESENT IN THE FLOW MODEL =    30

 MAXIMUM STEPSIZE WHICH MEETS STABILITY CRITERION OF THE SINK & SOURCE TERM
 =  12.52    (WHEN MIN. R.F.=1)  AT K=  17, I=   1, J=  91

 MAXIMUM STEPSIZE WHICH MEETS STABILITY CRITERION OF THE DISPERSION TERM
 =  4.741    (WHEN MIN. R.F.=1)  AT K=  16, I=   1, J=  89
     1 CALLS TO GCG PACKAGE FOR TRANSPORT TIME STEP 273 IN FLOW TIME STEP   1 STRESS PERIOD   1
     4 TOTAL ITERATIONS
0WARNING: NUMERICAL OSCILLATION ENCOUNTERED
 ONE OR MORE CELL CONCENTRATIONS LESS THAN CRHOREF
 SMALLEST DENSITY =  0.100E+04
 AT CELL (I,J,K) = (   1,  67,   8)

 
 SOLVING FOR HEAD 


     2 CALLS TO PCG ROUTINE FOR TIME STEP   1 IN STRESS PERIOD    1
     7 TOTAL ITERATIONS

 MAXIMUM HEAD CHANGE FOR EACH ITERATION (1 INDICATES THE FIRST INNER ITERATION):

    HEAD CHANGE    HEAD CHANGE    HEAD CHANGE    HEAD CHANGE    HEAD CHANGE 
   LAYER,ROW,COL  LAYER,ROW,COL  LAYER,ROW,COL  LAYER,ROW,COL  LAYER,ROW,COL
 ---------------------------------------------------------------------------
  1  0.3735E-02  0  0.2897E-02  0 -0.4408E-02  0 -0.1874E-02  0  0.1131E-02
   ( 11,  1, 66)  ( 10,  1, 12)  ( 11,  1, 65)  ( 11,  1, 57)  ( 11,  1, 65)
  0 -0.5816E-03  1 -0.3732E-03
   ( 11,  1, 65)  ( 11,  1, 70)

 MAXIMUM RESIDUAL FOR EACH ITERATION (1 INDICATES THE FIRST INNER ITERATION):

    RESIDUAL       RESIDUAL       RESIDUAL       RESIDUAL       RESIDUAL    
   LAYER,ROW,COL  LAYER,ROW,COL  LAYER,ROW,COL  LAYER,ROW,COL  LAYER,ROW,COL
 ---------------------------------------------------------------------------
  1 -0.6110E+05  0 -0.5146E+05  0 -0.1298E+05  0   7982.      0  -2577.    
   ( 23,  1, 92)  ( 23,  1, 92)  ( 23,  1, 92)  ( 23,  1, 91)  ( 23,  1, 92)
  0  -559.3      1  -488.5    
   ( 23,  1, 92)  ( 23,  1, 92)


 FLOW MODEL IS TRANSIENT
 FLOW MODEL CONTAINS CONSTANT-HEAD CELLS


 MAXIMUM STEPSIZE DURING WHICH ANY PARTICLE CANNOT MOVE MORE THAN ONE CELL
 =  14.76    (WHEN MIN. R.F.=1)  AT K=  18, I=   1, J=  91

 MAXIMUM STEPSIZE WHICH MEETS STABILITY CRITERION OF THE ADVECTION TERM
 (FOR PURE FINITE-DIFFERENCE OPTION, MIXELM=0) 
 =  8.860    (WHEN MIN. R.F.=1)  AT K=  16, I=   1, J=  90


 TOTAL NUMBER OF POINT SOURCES/SINKS PRESENT IN THE FLOW MODEL =    30

 MAXIMUM STEPSIZE WHICH MEETS STABILITY CRITERION OF THE SINK & SOURCE TERM
 =  12.13    (WHEN MIN. R.F.=1)  AT K=  17, I=   1, J=  91

 MAXIMUM STEPSIZE WHICH MEETS STABILITY CRITERION OF THE DISPERSION TERM
 =  4.740    (WHEN MIN. R.F.=1)  AT K=  16, I=   1, J=  89
     1 CALLS TO GCG PACKAGE FOR TRANSPORT TIME STEP 274 IN FLOW TIME STEP   1 STRESS PERIOD   1
     4 TOTAL ITERATIONS
0WARNING: NUMERICAL OSCILLATION ENCOUNTERED
 ONE OR MORE CELL CONCENTRATIONS LESS THAN CRHOREF
 SMALLEST DENSITY =  0.100E+04
 AT CELL (I,J,K) = (   1,  67,   8)

 
 SOLVING FOR HEAD 


     1 CALLS TO PCG ROUTINE FOR TIME STEP   1 IN STRESS PERIOD    1
     1 TOTAL ITERATIONS

 MAXIMUM HEAD CHANGE FOR EACH ITERATION (1 INDICATES THE FIRST INNER ITERATION):

    HEAD CHANGE    HEAD CHANGE    HEAD CHANGE    HEAD CHANGE    HEAD CHANGE 
   LAYER,ROW,COL  LAYER,ROW,COL  LAYER,ROW,COL  LAYER,ROW,COL  LAYER,ROW,COL
 ---------------------------------------------------------------------------
  1 -0.9268E-03
   ( 23,  1, 70)

 MAXIMUM RESIDUAL FOR EACH ITERATION (1 INDICATES THE FIRST INNER ITERATION):

    RESIDUAL       RESIDUAL       RESIDUAL       RESIDUAL       RESIDUAL    
   LAYER,ROW,COL  LAYER,ROW,COL  LAYER,ROW,COL  LAYER,ROW,COL  LAYER,ROW,COL
 ---------------------------------------------------------------------------
  1  -7774.    
   ( 22,  1, 55)


 FLOW MODEL IS TRANSIENT
 FLOW MODEL CONTAINS CONSTANT-HEAD CELLS


 MAXIMUM STEPSIZE DURING WHICH ANY PARTICLE CANNOT MOVE MORE THAN ONE CELL
 =  14.96    (WHEN MIN. R.F.=1)  AT K=  18, I=   1, J=  91

 MAXIMUM STEPSIZE WHICH MEETS STABILITY CRITERION OF THE ADVECTION TERM
 (FOR PURE FINITE-DIFFERENCE OPTION, MIXELM=0) 
 =  8.878    (WHEN MIN. R.F.=1)  AT K=  16, I=   1, J=  90


 TOTAL NUMBER OF POINT SOURCES/SINKS PRESENT IN THE FLOW MODEL =    30

 MAXIMUM STEPSIZE WHICH MEETS STABILITY CRITERION OF THE SINK & SOURCE TERM
 =  12.23    (WHEN MIN. R.F.=1)  AT K=  17, I=   1, J=  91

 MAXIMUM STEPSIZE WHICH MEETS STABILITY CRITERION OF THE DISPERSION TERM
 =  4.733    (WHEN MIN. R.F.=1)  AT K=  16, I=   1, J=  89
     1 CALLS TO GCG PACKAGE FOR TRANSPORT TIME STEP 275 IN FLOW TIME STEP   1 STRESS PERIOD   1
     4 TOTAL ITERATIONS
  MAXIMUM CONCENTRATION CHANGES FOR EACH ITERATION:
  MAX. CHANGE LAYER,ROW,COL MAX. CHANGE LAYER,ROW,COL MAX. CHANGE LAYER,ROW,COL MAX. CHANGE LAYER,ROW,COL MAX. CHANGE LAYER,ROW,COL
 ------------------------------------------------------------------------------------------------------------------------------------
   0.3294     ( 16,  1, 90)  0.6550E-03 ( 17,  1, 89)  0.1691E-04 ( 16,  1, 89)  0.1270E-06 ( 17,  1, 88)
0WARNING: NUMERICAL OSCILLATION ENCOUNTERED
 ONE OR MORE CELL CONCENTRATIONS LESS THAN CRHOREF
 SMALLEST DENSITY =  0.100E+04
 AT CELL (I,J,K) = (   1,  67,   8)

 
 SOLVING FOR HEAD 


     2 CALLS TO PCG ROUTINE FOR TIME STEP   1 IN STRESS PERIOD    1
     5 TOTAL ITERATIONS

 MAXIMUM HEAD CHANGE FOR EACH ITERATION (1 INDICATES THE FIRST INNER ITERATION):

    HEAD CHANGE    HEAD CHANGE    HEAD CHANGE    HEAD CHANGE    HEAD CHANGE 
   LAYER,ROW,COL  LAYER,ROW,COL  LAYER,ROW,COL  LAYER,ROW,COL  LAYER,ROW,COL
 ---------------------------------------------------------------------------
  1  0.3669E-02  0  0.2774E-02  0 -0.3478E-02  0 -0.9857E-03  1  0.2955E-03
   ( 11,  1, 65)  ( 10,  1, 12)  ( 11,  1, 64)  ( 11,  1, 70)  ( 11,  1, 69)

 MAXIMUM RESIDUAL FOR EACH ITERATION (1 INDICATES THE FIRST INNER ITERATION):

    RESIDUAL       RESIDUAL       RESIDUAL       RESIDUAL       RESIDUAL    
   LAYER,ROW,COL  LAYER,ROW,COL  LAYER,ROW,COL  LAYER,ROW,COL  LAYER,ROW,COL
 ---------------------------------------------------------------------------
  1  0.4898E+05  0  0.3882E+05  0   3618.      0   2982.      1   2352.    
   ( 22,  1, 91)  ( 22,  1, 91)  ( 23,  1, 90)  ( 23,  1, 90)  ( 23,  1, 90)


 FLOW MODEL IS TRANSIENT
 FLOW MODEL CONTAINS CONSTANT-HEAD CELLS


 MAXIMUM STEPSIZE DURING WHICH ANY PARTICLE CANNOT MOVE MORE THAN ONE CELL
 =  14.89    (WHEN MIN. R.F.=1)  AT K=  18, I=   1, J=  91

 MAXIMUM STEPSIZE WHICH MEETS STABILITY CRITERION OF THE ADVECTION TERM
 (FOR PURE FINITE-DIFFERENCE OPTION, MIXELM=0) 
 =  8.891    (WHEN MIN. R.F.=1)  AT K=  16, I=   1, J=  90


 TOTAL NUMBER OF POINT SOURCES/SINKS PRESENT IN THE FLOW MODEL =    30

 MAXIMUM STEPSIZE WHICH MEETS STABILITY CRITERION OF THE SINK & SOURCE TERM
 =  12.20    (WHEN MIN. R.F.=1)  AT K=  17, I=   1, J=  91

 MAXIMUM STEPSIZE WHICH MEETS STABILITY CRITERION OF THE DISPERSION TERM
 =  4.730    (WHEN MIN. R.F.=1)  AT K=  16, I=   1, J=  89
     1 CALLS TO GCG PACKAGE FOR TRANSPORT TIME STEP 276 IN FLOW TIME STEP   1 STRESS PERIOD   1
     4 TOTAL ITERATIONS
0WARNING: NUMERICAL OSCILLATION ENCOUNTERED
 ONE OR MORE CELL CONCENTRATIONS LESS THAN CRHOREF
 SMALLEST DENSITY =  0.100E+04
 AT CELL (I,J,K) = (   1,  67,   8)

 
 SOLVING FOR HEAD 


     2 CALLS TO PCG ROUTINE FOR TIME STEP   1 IN STRESS PERIOD    1
     4 TOTAL ITERATIONS

 MAXIMUM HEAD CHANGE FOR EACH ITERATION (1 INDICATES THE FIRST INNER ITERATION):

    HEAD CHANGE    HEAD CHANGE    HEAD CHANGE    HEAD CHANGE    HEAD CHANGE 
   LAYER,ROW,COL  LAYER,ROW,COL  LAYER,ROW,COL  LAYER,ROW,COL  LAYER,ROW,COL
 ---------------------------------------------------------------------------
  1 -0.9225E-03  0  0.1269E-02  0 -0.4663E-03  1  0.1899E-03
   ( 23,  1, 70)  ( 11,  1, 67)  ( 11,  1, 43)  ( 10,  1, 12)

 MAXIMUM RESIDUAL FOR EACH ITERATION (1 INDICATES THE FIRST INNER ITERATION):

    RESIDUAL       RESIDUAL       RESIDUAL       RESIDUAL       RESIDUAL    
   LAYER,ROW,COL  LAYER,ROW,COL  LAYER,ROW,COL  LAYER,ROW,COL  LAYER,ROW,COL
 ---------------------------------------------------------------------------
  1  0.1082E+05  0   2853.      0   2199.      1   2158.    
   ( 23,  1, 90)  ( 23,  1, 90)  ( 23,  1, 90)  ( 23,  1, 90)


 FLOW MODEL IS TRANSIENT
 FLOW MODEL CONTAINS CONSTANT-HEAD CELLS


 MAXIMUM STEPSIZE DURING WHICH ANY PARTICLE CANNOT MOVE MORE THAN ONE CELL
 =  15.11    (WHEN MIN. R.F.=1)  AT K=  18, I=   1, J=  91

 MAXIMUM STEPSIZE WHICH MEETS STABILITY CRITERION OF THE ADVECTION TERM
 (FOR PURE FINITE-DIFFERENCE OPTION, MIXELM=0) 
 =  8.914    (WHEN MIN. R.F.=1)  AT K=  16, I=   1, J=  90


 TOTAL NUMBER OF POINT SOURCES/SINKS PRESENT IN THE FLOW MODEL =    30

 MAXIMUM STEPSIZE WHICH MEETS STABILITY CRITERION OF THE SINK & SOURCE TERM
 =  12.34    (WHEN MIN. R.F.=1)  AT K=  17, I=   1, J=  91

 MAXIMUM STEPSIZE WHICH MEETS STABILITY CRITERION OF THE DISPERSION TERM
 =  4.721    (WHEN MIN. R.F.=1)  AT K=  16, I=   1, J=  89
     1 CALLS TO GCG PACKAGE FOR TRANSPORT TIME STEP 277 IN FLOW TIME STEP   1 STRESS PERIOD   1
     4 TOTAL ITERATIONS
0WARNING: NUMERICAL OSCILLATION ENCOUNTERED
 ONE OR MORE CELL CONCENTRATIONS LESS THAN CRHOREF
 SMALLEST DENSITY =  0.100E+04
 AT CELL (I,J,K) = (   1,  67,   8)

 
 SOLVING FOR HEAD 


     2 CALLS TO PCG ROUTINE FOR TIME STEP   1 IN STRESS PERIOD    1
     5 TOTAL ITERATIONS

 MAXIMUM HEAD CHANGE FOR EACH ITERATION (1 INDICATES THE FIRST INNER ITERATION):

    HEAD CHANGE    HEAD CHANGE    HEAD CHANGE    HEAD CHANGE    HEAD CHANGE 
   LAYER,ROW,COL  LAYER,ROW,COL  LAYER,ROW,COL  LAYER,ROW,COL  LAYER,ROW,COL
 ---------------------------------------------------------------------------
  1 -0.1173E-02  0  0.1183E-02  0  0.1112E-02  0 -0.4126E-03  1 -0.3495E-03
   ( 11,  1, 66)  ( 10,  1, 12)  ( 11,  1, 66)  ( 11,  1, 64)  ( 11,  1, 70)

 MAXIMUM RESIDUAL FOR EACH ITERATION (1 INDICATES THE FIRST INNER ITERATION):

    RESIDUAL       RESIDUAL       RESIDUAL       RESIDUAL       RESIDUAL    
   LAYER,ROW,COL  LAYER,ROW,COL  LAYER,ROW,COL  LAYER,ROW,COL  LAYER,ROW,COL
 ---------------------------------------------------------------------------
  1  0.1185E+05  0   8854.      0   3464.      0   2128.      1   1737.    
   ( 23,  1, 90)  ( 23,  1, 90)  ( 22,  1, 91)  ( 22,  1, 91)  ( 22,  1, 91)


 FLOW MODEL IS TRANSIENT
 FLOW MODEL CONTAINS CONSTANT-HEAD CELLS


 MAXIMUM STEPSIZE DURING WHICH ANY PARTICLE CANNOT MOVE MORE THAN ONE CELL
 =  15.02    (WHEN MIN. R.F.=1)  AT K=  18, I=   1, J=  91

 MAXIMUM STEPSIZE WHICH MEETS STABILITY CRITERION OF THE ADVECTION TERM
 (FOR PURE FINITE-DIFFERENCE OPTION, MIXELM=0) 
 =  8.908    (WHEN MIN. R.F.=1)  AT K=  16, I=   1, J=  90


 TOTAL NUMBER OF POINT SOURCES/SINKS PRESENT IN THE FLOW MODEL =    30

 MAXIMUM STEPSIZE WHICH MEETS STABILITY CRITERION OF THE SINK & SOURCE TERM
 =  12.28    (WHEN MIN. R.F.=1)  AT K=  17, I=   1, J=  91

 MAXIMUM STEPSIZE WHICH MEETS STABILITY CRITERION OF THE DISPERSION TERM
 =  4.727    (WHEN MIN. R.F.=1)  AT K=  16, I=   1, J=  89
     1 CALLS TO GCG PACKAGE FOR TRANSPORT TIME STEP 278 IN FLOW TIME STEP   1 STRESS PERIOD   1
     4 TOTAL ITERATIONS
0WARNING: NUMERICAL OSCILLATION ENCOUNTERED
 ONE OR MORE CELL CONCENTRATIONS LESS THAN CRHOREF
 SMALLEST DENSITY =  0.100E+04
 AT CELL (I,J,K) = (   1,  67,   8)

 
 SOLVING FOR HEAD 


     2 CALLS TO PCG ROUTINE FOR TIME STEP   1 IN STRESS PERIOD    1
     4 TOTAL ITERATIONS

 MAXIMUM HEAD CHANGE FOR EACH ITERATION (1 INDICATES THE FIRST INNER ITERATION):

    HEAD CHANGE    HEAD CHANGE    HEAD CHANGE    HEAD CHANGE    HEAD CHANGE 
   LAYER,ROW,COL  LAYER,ROW,COL  LAYER,ROW,COL  LAYER,ROW,COL  LAYER,ROW,COL
 ---------------------------------------------------------------------------
  1  0.9546E-03  0  0.1621E-02  0 -0.4644E-03  1 -0.2372E-03
   ( 11,  1, 69)  ( 11,  1, 62)  ( 11,  1, 62)  ( 10,  1, 12)

 MAXIMUM RESIDUAL FOR EACH ITERATION (1 INDICATES THE FIRST INNER ITERATION):

    RESIDUAL       RESIDUAL       RESIDUAL       RESIDUAL       RESIDUAL    
   LAYER,ROW,COL  LAYER,ROW,COL  LAYER,ROW,COL  LAYER,ROW,COL  LAYER,ROW,COL
 ---------------------------------------------------------------------------
  1 -0.1092E+05  0   3434.      0   3098.      1   3041.    
   ( 23,  1, 90)  ( 22,  1, 90)  ( 22,  1, 90)  ( 22,  1, 90)


 FLOW MODEL IS TRANSIENT
 FLOW MODEL CONTAINS CONSTANT-HEAD CELLS


 MAXIMUM STEPSIZE DURING WHICH ANY PARTICLE CANNOT MOVE MORE THAN ONE CELL
 =  15.16    (WHEN MIN. R.F.=1)  AT K=  18, I=   1, J=  91

 MAXIMUM STEPSIZE WHICH MEETS STABILITY CRITERION OF THE ADVECTION TERM
 (FOR PURE FINITE-DIFFERENCE OPTION, MIXELM=0) 
 =  8.924    (WHEN MIN. R.F.=1)  AT K=  16, I=   1, J=  90


 TOTAL NUMBER OF POINT SOURCES/SINKS PRESENT IN THE FLOW MODEL =    30

 MAXIMUM STEPSIZE WHICH MEETS STABILITY CRITERION OF THE SINK & SOURCE TERM
 =  12.36    (WHEN MIN. R.F.=1)  AT K=  17, I=   1, J=  91

 MAXIMUM STEPSIZE WHICH MEETS STABILITY CRITERION OF THE DISPERSION TERM
 =  4.722    (WHEN MIN. R.F.=1)  AT K=  16, I=   1, J=  89
     1 CALLS TO GCG PACKAGE FOR TRANSPORT TIME STEP 279 IN FLOW TIME STEP   1 STRESS PERIOD   1
     4 TOTAL ITERATIONS
0WARNING: NUMERICAL OSCILLATION ENCOUNTERED
 ONE OR MORE CELL CONCENTRATIONS LESS THAN CRHOREF
 SMALLEST DENSITY =  0.100E+04
 AT CELL (I,J,K) = (   1,  67,   8)

 
 SOLVING FOR HEAD 


     2 CALLS TO PCG ROUTINE FOR TIME STEP   1 IN STRESS PERIOD    1
     5 TOTAL ITERATIONS

 MAXIMUM HEAD CHANGE FOR EACH ITERATION (1 INDICATES THE FIRST INNER ITERATION):

    HEAD CHANGE    HEAD CHANGE    HEAD CHANGE    HEAD CHANGE    HEAD CHANGE 
   LAYER,ROW,COL  LAYER,ROW,COL  LAYER,ROW,COL  LAYER,ROW,COL  LAYER,ROW,COL
 ---------------------------------------------------------------------------
  1 -0.1656E-02  0 -0.1488E-02  0  0.1912E-02  0 -0.5738E-03  1 -0.3804E-03
   ( 11,  1, 63)  ( 10,  1, 12)  ( 11,  1, 63)  ( 11,  1, 62)  ( 11,  1, 69)

 MAXIMUM RESIDUAL FOR EACH ITERATION (1 INDICATES THE FIRST INNER ITERATION):

    RESIDUAL       RESIDUAL       RESIDUAL       RESIDUAL       RESIDUAL    
   LAYER,ROW,COL  LAYER,ROW,COL  LAYER,ROW,COL  LAYER,ROW,COL  LAYER,ROW,COL
 ---------------------------------------------------------------------------
  1 -0.1426E+05  0  -9416.      0   3696.      0   3036.      1   1968.    
   ( 23,  1, 91)  ( 23,  1, 91)  ( 21,  1, 91)  ( 22,  1, 91)  ( 22,  1, 91)


 FLOW MODEL IS TRANSIENT
 FLOW MODEL CONTAINS CONSTANT-HEAD CELLS


 MAXIMUM STEPSIZE DURING WHICH ANY PARTICLE CANNOT MOVE MORE THAN ONE CELL
 =  15.08    (WHEN MIN. R.F.=1)  AT K=  18, I=   1, J=  91

 MAXIMUM STEPSIZE WHICH MEETS STABILITY CRITERION OF THE ADVECTION TERM
 (FOR PURE FINITE-DIFFERENCE OPTION, MIXELM=0) 
 =  8.919    (WHEN MIN. R.F.=1)  AT K=  16, I=   1, J=  90


 TOTAL NUMBER OF POINT SOURCES/SINKS PRESENT IN THE FLOW MODEL =    30

 MAXIMUM STEPSIZE WHICH MEETS STABILITY CRITERION OF THE SINK & SOURCE TERM
 =  12.32    (WHEN MIN. R.F.=1)  AT K=  17, I=   1, J=  91

 MAXIMUM STEPSIZE WHICH MEETS STABILITY CRITERION OF THE DISPERSION TERM
 =  4.722    (WHEN MIN. R.F.=1)  AT K=  16, I=   1, J=  89
     1 CALLS TO GCG PACKAGE FOR TRANSPORT TIME STEP 280 IN FLOW TIME STEP   1 STRESS PERIOD   1
     4 TOTAL ITERATIONS
  MAXIMUM CONCENTRATION CHANGES FOR EACH ITERATION:
  MAX. CHANGE LAYER,ROW,COL MAX. CHANGE LAYER,ROW,COL MAX. CHANGE LAYER,ROW,COL MAX. CHANGE LAYER,ROW,COL MAX. CHANGE LAYER,ROW,COL
 ------------------------------------------------------------------------------------------------------------------------------------
   0.3299     ( 16,  1, 90)  0.6866E-03 ( 17,  1, 89)  0.1805E-04 ( 16,  1, 89)  0.1319E-06 ( 17,  1, 88)



 >>>>>>>>>>>>>>>>>>>>>>>>>>>>>>>>>>>>>>>>>>>>>>>>>>>>>>>FOR COMPONENT NO. 01<<<<<<<<<<<<<<<<<<<<<<<<<<<<<<<<<<<<<<<<<<<<<<<<<<<<<<<


                                            -------------------------------------------
                                                      TRANSPORT STEP NO.  280
                                            -------------------------------------------

 TOTAL ELAPSED TIME SINCE BEGINNING OF SIMULATION =   1849.409    D   
 .....................................................................

                     CUMMULATIVE MASS BUDGETS AT END OF TRANSPORT STEP  280, TIME STEP    1, STRESS PERIOD    1
                     ------------------------------------------------------------------------------------------

                                                             IN                           OUT
                                                      ----------------             ----------------
                               CONSTANT CONCENTRATION:    0.000000                    0.000000    
                                        CONSTANT HEAD:   0.3769307E+08              -0.4072197E+08
                                             RECHARGE:    0.000000                    0.000000    
                                MASS STORAGE (SOLUTE):   0.2588510E+08              -0.2285620E+08
                            ---------------------------------------------------------------------------
                                              [TOTAL]:   0.6357934E+08 KG           -0.6357933E+08 KG  

                                                          NET (IN - OUT):    1.439395    
                                                   DISCREPANCY (PERCENT):   0.2263935E-05
0WARNING: NUMERICAL OSCILLATION ENCOUNTERED
 ONE OR MORE CELL CONCENTRATIONS LESS THAN CRHOREF
 SMALLEST DENSITY =  0.100E+04
 AT CELL (I,J,K) = (   1,  67,   8)

 
 SOLVING FOR HEAD 


     2 CALLS TO PCG ROUTINE FOR TIME STEP   1 IN STRESS PERIOD    1
     4 TOTAL ITERATIONS

 MAXIMUM HEAD CHANGE FOR EACH ITERATION (1 INDICATES THE FIRST INNER ITERATION):

    HEAD CHANGE    HEAD CHANGE    HEAD CHANGE    HEAD CHANGE    HEAD CHANGE 
   LAYER,ROW,COL  LAYER,ROW,COL  LAYER,ROW,COL  LAYER,ROW,COL  LAYER,ROW,COL
 ---------------------------------------------------------------------------
  1 -0.2021E-02  0  0.2612E-02  0 -0.3598E-03  1  0.3067E-03
   ( 11,  1, 61)  ( 11,  1, 61)  ( 10,  1, 12)  ( 10,  1, 12)

 MAXIMUM RESIDUAL FOR EACH ITERATION (1 INDICATES THE FIRST INNER ITERATION):

    RESIDUAL       RESIDUAL       RESIDUAL       RESIDUAL       RESIDUAL    
   LAYER,ROW,COL  LAYER,ROW,COL  LAYER,ROW,COL  LAYER,ROW,COL  LAYER,ROW,COL
 ---------------------------------------------------------------------------
  1  -8498.      0   3231.      0   3075.      1   3002.    
   ( 22,  1, 54)  ( 21,  1, 92)  ( 21,  1, 92)  ( 21,  1, 92)


 FLOW MODEL IS TRANSIENT
 FLOW MODEL CONTAINS CONSTANT-HEAD CELLS


 MAXIMUM STEPSIZE DURING WHICH ANY PARTICLE CANNOT MOVE MORE THAN ONE CELL
 =  15.23    (WHEN MIN. R.F.=1)  AT K=  18, I=   1, J=  91

 MAXIMUM STEPSIZE WHICH MEETS STABILITY CRITERION OF THE ADVECTION TERM
 (FOR PURE FINITE-DIFFERENCE OPTION, MIXELM=0) 
 =  8.944    (WHEN MIN. R.F.=1)  AT K=  16, I=   1, J=  90


 TOTAL NUMBER OF POINT SOURCES/SINKS PRESENT IN THE FLOW MODEL =    30

 MAXIMUM STEPSIZE WHICH MEETS STABILITY CRITERION OF THE SINK & SOURCE TERM
 =  12.41    (WHEN MIN. R.F.=1)  AT K=  17, I=   1, J=  91

 MAXIMUM STEPSIZE WHICH MEETS STABILITY CRITERION OF THE DISPERSION TERM
 =  4.717    (WHEN MIN. R.F.=1)  AT K=  16, I=   1, J=  89
     1 CALLS TO GCG PACKAGE FOR TRANSPORT TIME STEP 281 IN FLOW TIME STEP   1 STRESS PERIOD   1
     4 TOTAL ITERATIONS
0WARNING: NUMERICAL OSCILLATION ENCOUNTERED
 ONE OR MORE CELL CONCENTRATIONS LESS THAN CRHOREF
 SMALLEST DENSITY =  0.100E+04
 AT CELL (I,J,K) = (   1,  67,   8)

 
 SOLVING FOR HEAD 


     2 CALLS TO PCG ROUTINE FOR TIME STEP   1 IN STRESS PERIOD    1
     5 TOTAL ITERATIONS

 MAXIMUM HEAD CHANGE FOR EACH ITERATION (1 INDICATES THE FIRST INNER ITERATION):

    HEAD CHANGE    HEAD CHANGE    HEAD CHANGE    HEAD CHANGE    HEAD CHANGE 
   LAYER,ROW,COL  LAYER,ROW,COL  LAYER,ROW,COL  LAYER,ROW,COL  LAYER,ROW,COL
 ---------------------------------------------------------------------------
  1 -0.2065E-02  0 -0.2161E-02  0  0.3068E-02  0  0.4662E-03  1 -0.3348E-03
   ( 10,  1, 12)  ( 11,  1, 61)  ( 11,  1, 61)  ( 11,  1, 69)  ( 11,  1, 51)

 MAXIMUM RESIDUAL FOR EACH ITERATION (1 INDICATES THE FIRST INNER ITERATION):

    RESIDUAL       RESIDUAL       RESIDUAL       RESIDUAL       RESIDUAL    
   LAYER,ROW,COL  LAYER,ROW,COL  LAYER,ROW,COL  LAYER,ROW,COL  LAYER,ROW,COL
 ---------------------------------------------------------------------------
  1 -0.2296E+05  0  -7536.      0  -3960.      0  -2839.      1  -1939.    
   ( 23,  1, 91)  ( 22,  1, 54)  ( 20,  1, 92)  ( 20,  1, 92)  ( 20,  1, 92)


 FLOW MODEL IS TRANSIENT
 FLOW MODEL CONTAINS CONSTANT-HEAD CELLS


 MAXIMUM STEPSIZE DURING WHICH ANY PARTICLE CANNOT MOVE MORE THAN ONE CELL
 =  15.07    (WHEN MIN. R.F.=1)  AT K=  18, I=   1, J=  91

 MAXIMUM STEPSIZE WHICH MEETS STABILITY CRITERION OF THE ADVECTION TERM
 (FOR PURE FINITE-DIFFERENCE OPTION, MIXELM=0) 
 =  8.928    (WHEN MIN. R.F.=1)  AT K=  16, I=   1, J=  90


 TOTAL NUMBER OF POINT SOURCES/SINKS PRESENT IN THE FLOW MODEL =    30

 MAXIMUM STEPSIZE WHICH MEETS STABILITY CRITERION OF THE SINK & SOURCE TERM
 =  12.31    (WHEN MIN. R.F.=1)  AT K=  17, I=   1, J=  91

 MAXIMUM STEPSIZE WHICH MEETS STABILITY CRITERION OF THE DISPERSION TERM
 =  4.718    (WHEN MIN. R.F.=1)  AT K=  16, I=   1, J=  89
     1 CALLS TO GCG PACKAGE FOR TRANSPORT TIME STEP 282 IN FLOW TIME STEP   1 STRESS PERIOD   1
     4 TOTAL ITERATIONS
0WARNING: NUMERICAL OSCILLATION ENCOUNTERED
 ONE OR MORE CELL CONCENTRATIONS LESS THAN CRHOREF
 SMALLEST DENSITY =  0.100E+04
 AT CELL (I,J,K) = (   1,  67,   8)

 
 SOLVING FOR HEAD 


     2 CALLS TO PCG ROUTINE FOR TIME STEP   1 IN STRESS PERIOD    1
     4 TOTAL ITERATIONS

 MAXIMUM HEAD CHANGE FOR EACH ITERATION (1 INDICATES THE FIRST INNER ITERATION):

    HEAD CHANGE    HEAD CHANGE    HEAD CHANGE    HEAD CHANGE    HEAD CHANGE 
   LAYER,ROW,COL  LAYER,ROW,COL  LAYER,ROW,COL  LAYER,ROW,COL  LAYER,ROW,COL
 ---------------------------------------------------------------------------
  1  0.1654E-02  0 -0.1915E-02  0 -0.3440E-03  1  0.2592E-03
   ( 11,  1, 51)  ( 11,  1, 51)  ( 10,  1, 12)  ( 10,  1, 12)

 MAXIMUM RESIDUAL FOR EACH ITERATION (1 INDICATES THE FIRST INNER ITERATION):

    RESIDUAL       RESIDUAL       RESIDUAL       RESIDUAL       RESIDUAL    
   LAYER,ROW,COL  LAYER,ROW,COL  LAYER,ROW,COL  LAYER,ROW,COL  LAYER,ROW,COL
 ---------------------------------------------------------------------------
  1   7247.      0   3532.      0   3305.      1   3194.    
   ( 19,  1, 92)  ( 19,  1, 92)  ( 19,  1, 92)  ( 19,  1, 92)


 FLOW MODEL IS TRANSIENT
 FLOW MODEL CONTAINS CONSTANT-HEAD CELLS


 MAXIMUM STEPSIZE DURING WHICH ANY PARTICLE CANNOT MOVE MORE THAN ONE CELL
 =  15.27    (WHEN MIN. R.F.=1)  AT K=  18, I=   1, J=  91

 MAXIMUM STEPSIZE WHICH MEETS STABILITY CRITERION OF THE ADVECTION TERM
 (FOR PURE FINITE-DIFFERENCE OPTION, MIXELM=0) 
 =  8.952    (WHEN MIN. R.F.=1)  AT K=  16, I=   1, J=  90


 TOTAL NUMBER OF POINT SOURCES/SINKS PRESENT IN THE FLOW MODEL =    30

 MAXIMUM STEPSIZE WHICH MEETS STABILITY CRITERION OF THE SINK & SOURCE TERM
 =  12.43    (WHEN MIN. R.F.=1)  AT K=  17, I=   1, J=  91

 MAXIMUM STEPSIZE WHICH MEETS STABILITY CRITERION OF THE DISPERSION TERM
 =  4.714    (WHEN MIN. R.F.=1)  AT K=  16, I=   1, J=  89
     1 CALLS TO GCG PACKAGE FOR TRANSPORT TIME STEP 283 IN FLOW TIME STEP   1 STRESS PERIOD   1
     4 TOTAL ITERATIONS
0WARNING: NUMERICAL OSCILLATION ENCOUNTERED
 ONE OR MORE CELL CONCENTRATIONS LESS THAN CRHOREF
 SMALLEST DENSITY =  0.100E+04
 AT CELL (I,J,K) = (   1,  67,   8)

 
 SOLVING FOR HEAD 


     2 CALLS TO PCG ROUTINE FOR TIME STEP   1 IN STRESS PERIOD    1
     5 TOTAL ITERATIONS

 MAXIMUM HEAD CHANGE FOR EACH ITERATION (1 INDICATES THE FIRST INNER ITERATION):

    HEAD CHANGE    HEAD CHANGE    HEAD CHANGE    HEAD CHANGE    HEAD CHANGE 
   LAYER,ROW,COL  LAYER,ROW,COL  LAYER,ROW,COL  LAYER,ROW,COL  LAYER,ROW,COL
 ---------------------------------------------------------------------------
  1 -0.1819E-02  0 -0.1753E-02  0 -0.2337E-02  0  0.5738E-03  1 -0.3588E-03
   ( 10,  1, 12)  ( 11,  1, 60)  ( 11,  1, 51)  ( 11,  1, 50)  ( 11,  1, 50)

 MAXIMUM RESIDUAL FOR EACH ITERATION (1 INDICATES THE FIRST INNER ITERATION):

    RESIDUAL       RESIDUAL       RESIDUAL       RESIDUAL       RESIDUAL    
   LAYER,ROW,COL  LAYER,ROW,COL  LAYER,ROW,COL  LAYER,ROW,COL  LAYER,ROW,COL
 ---------------------------------------------------------------------------
  1  0.2709E+05  0  -7777.      0  -4672.      0  -3775.      1  -2508.    
   ( 23,  1, 92)  ( 22,  1, 54)  ( 21,  1, 92)  ( 21,  1, 92)  ( 21,  1, 92)


 FLOW MODEL IS TRANSIENT
 FLOW MODEL CONTAINS CONSTANT-HEAD CELLS


 MAXIMUM STEPSIZE DURING WHICH ANY PARTICLE CANNOT MOVE MORE THAN ONE CELL
 =  15.00    (WHEN MIN. R.F.=1)  AT K=  18, I=   1, J=  91

 MAXIMUM STEPSIZE WHICH MEETS STABILITY CRITERION OF THE ADVECTION TERM
 (FOR PURE FINITE-DIFFERENCE OPTION, MIXELM=0) 
 =  8.925    (WHEN MIN. R.F.=1)  AT K=  16, I=   1, J=  90


 TOTAL NUMBER OF POINT SOURCES/SINKS PRESENT IN THE FLOW MODEL =    30

 MAXIMUM STEPSIZE WHICH MEETS STABILITY CRITERION OF THE SINK & SOURCE TERM
 =  12.27    (WHEN MIN. R.F.=1)  AT K=  17, I=   1, J=  91

 MAXIMUM STEPSIZE WHICH MEETS STABILITY CRITERION OF THE DISPERSION TERM
 =  4.716    (WHEN MIN. R.F.=1)  AT K=  16, I=   1, J=  89
     1 CALLS TO GCG PACKAGE FOR TRANSPORT TIME STEP 284 IN FLOW TIME STEP   1 STRESS PERIOD   1
     4 TOTAL ITERATIONS
0WARNING: NUMERICAL OSCILLATION ENCOUNTERED
 ONE OR MORE CELL CONCENTRATIONS LESS THAN CRHOREF
 SMALLEST DENSITY =  0.100E+04
 AT CELL (I,J,K) = (   1,  67,   8)

 
 SOLVING FOR HEAD 


     2 CALLS TO PCG ROUTINE FOR TIME STEP   1 IN STRESS PERIOD    1
     4 TOTAL ITERATIONS

 MAXIMUM HEAD CHANGE FOR EACH ITERATION (1 INDICATES THE FIRST INNER ITERATION):

    HEAD CHANGE    HEAD CHANGE    HEAD CHANGE    HEAD CHANGE    HEAD CHANGE 
   LAYER,ROW,COL  LAYER,ROW,COL  LAYER,ROW,COL  LAYER,ROW,COL  LAYER,ROW,COL
 ---------------------------------------------------------------------------
  1  0.1896E-02  0 -0.1716E-02  0 -0.6226E-03  1  0.4006E-03
   ( 11,  1, 50)  ( 11,  1, 50)  ( 10,  1, 12)  ( 11,  1, 50)

 MAXIMUM RESIDUAL FOR EACH ITERATION (1 INDICATES THE FIRST INNER ITERATION):

    RESIDUAL       RESIDUAL       RESIDUAL       RESIDUAL       RESIDUAL    
   LAYER,ROW,COL  LAYER,ROW,COL  LAYER,ROW,COL  LAYER,ROW,COL  LAYER,ROW,COL
 ---------------------------------------------------------------------------
  1  -8122.      0   5540.      0   5225.      1   4706.    
   ( 22,  1, 92)  ( 21,  1, 92)  ( 21,  1, 92)  ( 21,  1, 92)


 FLOW MODEL IS TRANSIENT
 FLOW MODEL CONTAINS CONSTANT-HEAD CELLS


 MAXIMUM STEPSIZE DURING WHICH ANY PARTICLE CANNOT MOVE MORE THAN ONE CELL
 =  15.28    (WHEN MIN. R.F.=1)  AT K=  18, I=   1, J=  91

 MAXIMUM STEPSIZE WHICH MEETS STABILITY CRITERION OF THE ADVECTION TERM
 (FOR PURE FINITE-DIFFERENCE OPTION, MIXELM=0) 
 =  8.958    (WHEN MIN. R.F.=1)  AT K=  16, I=   1, J=  90


 TOTAL NUMBER OF POINT SOURCES/SINKS PRESENT IN THE FLOW MODEL =    30

 MAXIMUM STEPSIZE WHICH MEETS STABILITY CRITERION OF THE SINK & SOURCE TERM
 =  12.44    (WHEN MIN. R.F.=1)  AT K=  17, I=   1, J=  91

 MAXIMUM STEPSIZE WHICH MEETS STABILITY CRITERION OF THE DISPERSION TERM
 =  4.709    (WHEN MIN. R.F.=1)  AT K=  16, I=   1, J=  89
     1 CALLS TO GCG PACKAGE FOR TRANSPORT TIME STEP 285 IN FLOW TIME STEP   1 STRESS PERIOD   1
     4 TOTAL ITERATIONS
  MAXIMUM CONCENTRATION CHANGES FOR EACH ITERATION:
  MAX. CHANGE LAYER,ROW,COL MAX. CHANGE LAYER,ROW,COL MAX. CHANGE LAYER,ROW,COL MAX. CHANGE LAYER,ROW,COL MAX. CHANGE LAYER,ROW,COL
 ------------------------------------------------------------------------------------------------------------------------------------
   0.3290     ( 16,  1, 90)  0.6864E-03 ( 17,  1, 89)  0.1814E-04 ( 16,  1, 89)  0.1328E-06 ( 17,  1, 88)
0WARNING: NUMERICAL OSCILLATION ENCOUNTERED
 ONE OR MORE CELL CONCENTRATIONS LESS THAN CRHOREF
 SMALLEST DENSITY =  0.100E+04
 AT CELL (I,J,K) = (   1,  67,   8)

 
 SOLVING FOR HEAD 


     2 CALLS TO PCG ROUTINE FOR TIME STEP   1 IN STRESS PERIOD    1
     4 TOTAL ITERATIONS

 MAXIMUM HEAD CHANGE FOR EACH ITERATION (1 INDICATES THE FIRST INNER ITERATION):

    HEAD CHANGE    HEAD CHANGE    HEAD CHANGE    HEAD CHANGE    HEAD CHANGE 
   LAYER,ROW,COL  LAYER,ROW,COL  LAYER,ROW,COL  LAYER,ROW,COL  LAYER,ROW,COL
 ---------------------------------------------------------------------------
  1 -0.1537E-02  0  0.1190E-02  0  0.9347E-03  1 -0.7553E-03
   ( 10,  1, 12)  (  9,  1, 12)  ( 11,  1, 64)  ( 11,  1, 63)

 MAXIMUM RESIDUAL FOR EACH ITERATION (1 INDICATES THE FIRST INNER ITERATION):

    RESIDUAL       RESIDUAL       RESIDUAL       RESIDUAL       RESIDUAL    
   LAYER,ROW,COL  LAYER,ROW,COL  LAYER,ROW,COL  LAYER,ROW,COL  LAYER,ROW,COL
 ---------------------------------------------------------------------------
  1  0.3374E+05  0  -9674.      0  -5997.      1  -3404.    
   ( 22,  1, 92)  ( 20,  1, 92)  ( 20,  1, 92)  ( 20,  1, 92)


 FLOW MODEL IS TRANSIENT
 FLOW MODEL CONTAINS CONSTANT-HEAD CELLS


 MAXIMUM STEPSIZE DURING WHICH ANY PARTICLE CANNOT MOVE MORE THAN ONE CELL
 =  14.98    (WHEN MIN. R.F.=1)  AT K=  18, I=   1, J=  91

 MAXIMUM STEPSIZE WHICH MEETS STABILITY CRITERION OF THE ADVECTION TERM
 (FOR PURE FINITE-DIFFERENCE OPTION, MIXELM=0) 
 =  8.921    (WHEN MIN. R.F.=1)  AT K=  16, I=   1, J=  90


 TOTAL NUMBER OF POINT SOURCES/SINKS PRESENT IN THE FLOW MODEL =    30

 MAXIMUM STEPSIZE WHICH MEETS STABILITY CRITERION OF THE SINK & SOURCE TERM
 =  12.26    (WHEN MIN. R.F.=1)  AT K=  17, I=   1, J=  91

 MAXIMUM STEPSIZE WHICH MEETS STABILITY CRITERION OF THE DISPERSION TERM
 =  4.711    (WHEN MIN. R.F.=1)  AT K=  16, I=   1, J=  89
     1 CALLS TO GCG PACKAGE FOR TRANSPORT TIME STEP 286 IN FLOW TIME STEP   1 STRESS PERIOD   1
     4 TOTAL ITERATIONS
0WARNING: NUMERICAL OSCILLATION ENCOUNTERED
 ONE OR MORE CELL CONCENTRATIONS LESS THAN CRHOREF
 SMALLEST DENSITY =  0.100E+04
 AT CELL (I,J,K) = (   1,  67,   8)

 
 SOLVING FOR HEAD 


     2 CALLS TO PCG ROUTINE FOR TIME STEP   1 IN STRESS PERIOD    1
     5 TOTAL ITERATIONS

 MAXIMUM HEAD CHANGE FOR EACH ITERATION (1 INDICATES THE FIRST INNER ITERATION):

    HEAD CHANGE    HEAD CHANGE    HEAD CHANGE    HEAD CHANGE    HEAD CHANGE 
   LAYER,ROW,COL  LAYER,ROW,COL  LAYER,ROW,COL  LAYER,ROW,COL  LAYER,ROW,COL
 ---------------------------------------------------------------------------
  1  0.3097E-02  0  0.1778E-02  0  0.1244E-02  0 -0.6577E-03  1 -0.6075E-03
   ( 11,  1, 62)  ( 11,  1, 70)  ( 11,  1, 70)  ( 11,  1, 69)  ( 11,  1, 60)

 MAXIMUM RESIDUAL FOR EACH ITERATION (1 INDICATES THE FIRST INNER ITERATION):

    RESIDUAL       RESIDUAL       RESIDUAL       RESIDUAL       RESIDUAL    
   LAYER,ROW,COL  LAYER,ROW,COL  LAYER,ROW,COL  LAYER,ROW,COL  LAYER,ROW,COL
 ---------------------------------------------------------------------------
  1  0.1410E+05  0   8982.      0   5740.      0   4578.      1   3051.    
   ( 19,  1, 92)  ( 19,  1, 92)  ( 19,  1, 92)  ( 22,  1, 92)  ( 22,  1, 92)


 FLOW MODEL IS TRANSIENT
 FLOW MODEL CONTAINS CONSTANT-HEAD CELLS


 MAXIMUM STEPSIZE DURING WHICH ANY PARTICLE CANNOT MOVE MORE THAN ONE CELL
 =  15.28    (WHEN MIN. R.F.=1)  AT K=  18, I=   1, J=  91

 MAXIMUM STEPSIZE WHICH MEETS STABILITY CRITERION OF THE ADVECTION TERM
 (FOR PURE FINITE-DIFFERENCE OPTION, MIXELM=0) 
 =  8.960    (WHEN MIN. R.F.=1)  AT K=  16, I=   1, J=  90


 TOTAL NUMBER OF POINT SOURCES/SINKS PRESENT IN THE FLOW MODEL =    30

 MAXIMUM STEPSIZE WHICH MEETS STABILITY CRITERION OF THE SINK & SOURCE TERM
 =  12.44    (WHEN MIN. R.F.=1)  AT K=  17, I=   1, J=  91

 MAXIMUM STEPSIZE WHICH MEETS STABILITY CRITERION OF THE DISPERSION TERM
 =  4.707    (WHEN MIN. R.F.=1)  AT K=  16, I=   1, J=  89
     1 CALLS TO GCG PACKAGE FOR TRANSPORT TIME STEP 287 IN FLOW TIME STEP   1 STRESS PERIOD   1
     4 TOTAL ITERATIONS
0WARNING: NUMERICAL OSCILLATION ENCOUNTERED
 ONE OR MORE CELL CONCENTRATIONS LESS THAN CRHOREF
 SMALLEST DENSITY =  0.100E+04
 AT CELL (I,J,K) = (   1,  67,   8)

 
 SOLVING FOR HEAD 


     2 CALLS TO PCG ROUTINE FOR TIME STEP   1 IN STRESS PERIOD    1
     5 TOTAL ITERATIONS

 MAXIMUM HEAD CHANGE FOR EACH ITERATION (1 INDICATES THE FIRST INNER ITERATION):

    HEAD CHANGE    HEAD CHANGE    HEAD CHANGE    HEAD CHANGE    HEAD CHANGE 
   LAYER,ROW,COL  LAYER,ROW,COL  LAYER,ROW,COL  LAYER,ROW,COL  LAYER,ROW,COL
 ---------------------------------------------------------------------------
  1  0.2271E-02  0 -0.1069E-02  0  0.1970E-02  0 -0.5274E-03  1 -0.5003E-03
   ( 11,  1, 60)  ( 10,  1, 12)  ( 11,  1, 50)  ( 11,  1, 50)  ( 11,  1, 65)

 MAXIMUM RESIDUAL FOR EACH ITERATION (1 INDICATES THE FIRST INNER ITERATION):

    RESIDUAL       RESIDUAL       RESIDUAL       RESIDUAL       RESIDUAL    
   LAYER,ROW,COL  LAYER,ROW,COL  LAYER,ROW,COL  LAYER,ROW,COL  LAYER,ROW,COL
 ---------------------------------------------------------------------------
  1 -0.1361E+05  0 -0.1110E+05  0  -4491.      0  -3221.      1  -1979.    
   ( 21,  1, 92)  ( 21,  1, 92)  ( 21,  1, 92)  ( 22,  1, 92)  ( 21,  1, 92)


 FLOW MODEL IS TRANSIENT
 FLOW MODEL CONTAINS CONSTANT-HEAD CELLS


 MAXIMUM STEPSIZE DURING WHICH ANY PARTICLE CANNOT MOVE MORE THAN ONE CELL
 =  15.15    (WHEN MIN. R.F.=1)  AT K=  18, I=   1, J=  91

 MAXIMUM STEPSIZE WHICH MEETS STABILITY CRITERION OF THE ADVECTION TERM
 (FOR PURE FINITE-DIFFERENCE OPTION, MIXELM=0) 
 =  8.946    (WHEN MIN. R.F.=1)  AT K=  16, I=   1, J=  90


 TOTAL NUMBER OF POINT SOURCES/SINKS PRESENT IN THE FLOW MODEL =    30

 MAXIMUM STEPSIZE WHICH MEETS STABILITY CRITERION OF THE SINK & SOURCE TERM
 =  12.36    (WHEN MIN. R.F.=1)  AT K=  17, I=   1, J=  91

 MAXIMUM STEPSIZE WHICH MEETS STABILITY CRITERION OF THE DISPERSION TERM
 =  4.707    (WHEN MIN. R.F.=1)  AT K=  16, I=   1, J=  89
     1 CALLS TO GCG PACKAGE FOR TRANSPORT TIME STEP 288 IN FLOW TIME STEP   1 STRESS PERIOD   1
     4 TOTAL ITERATIONS
0WARNING: NUMERICAL OSCILLATION ENCOUNTERED
 ONE OR MORE CELL CONCENTRATIONS LESS THAN CRHOREF
 SMALLEST DENSITY =  0.100E+04
 AT CELL (I,J,K) = (   1,  67,   8)

 
 SOLVING FOR HEAD 


     2 CALLS TO PCG ROUTINE FOR TIME STEP   1 IN STRESS PERIOD    1
     4 TOTAL ITERATIONS

 MAXIMUM HEAD CHANGE FOR EACH ITERATION (1 INDICATES THE FIRST INNER ITERATION):

    HEAD CHANGE    HEAD CHANGE    HEAD CHANGE    HEAD CHANGE    HEAD CHANGE 
   LAYER,ROW,COL  LAYER,ROW,COL  LAYER,ROW,COL  LAYER,ROW,COL  LAYER,ROW,COL
 ---------------------------------------------------------------------------
  1  0.1252E-02  0  0.1666E-02  0 -0.5406E-03  1 -0.3805E-03
   ( 11,  1, 57)  ( 11,  1, 49)  ( 10,  1, 12)  ( 11,  1, 49)

 MAXIMUM RESIDUAL FOR EACH ITERATION (1 INDICATES THE FIRST INNER ITERATION):

    RESIDUAL       RESIDUAL       RESIDUAL       RESIDUAL       RESIDUAL    
   LAYER,ROW,COL  LAYER,ROW,COL  LAYER,ROW,COL  LAYER,ROW,COL  LAYER,ROW,COL
 ---------------------------------------------------------------------------
  1   8858.      0   3951.      0   3433.      1   3187.    
   ( 21,  1, 92)  ( 21,  1, 92)  ( 21,  1, 92)  ( 21,  1, 92)


 FLOW MODEL IS TRANSIENT
 FLOW MODEL CONTAINS CONSTANT-HEAD CELLS


 MAXIMUM STEPSIZE DURING WHICH ANY PARTICLE CANNOT MOVE MORE THAN ONE CELL
 =  15.28    (WHEN MIN. R.F.=1)  AT K=  18, I=   1, J=  91

 MAXIMUM STEPSIZE WHICH MEETS STABILITY CRITERION OF THE ADVECTION TERM
 (FOR PURE FINITE-DIFFERENCE OPTION, MIXELM=0) 
 =  8.964    (WHEN MIN. R.F.=1)  AT K=  16, I=   1, J=  90


 TOTAL NUMBER OF POINT SOURCES/SINKS PRESENT IN THE FLOW MODEL =    30

 MAXIMUM STEPSIZE WHICH MEETS STABILITY CRITERION OF THE SINK & SOURCE TERM
 =  12.45    (WHEN MIN. R.F.=1)  AT K=  17, I=   1, J=  91

 MAXIMUM STEPSIZE WHICH MEETS STABILITY CRITERION OF THE DISPERSION TERM
 =  4.703    (WHEN MIN. R.F.=1)  AT K=  16, I=   1, J=  89
     1 CALLS TO GCG PACKAGE FOR TRANSPORT TIME STEP 289 IN FLOW TIME STEP   1 STRESS PERIOD   1
     4 TOTAL ITERATIONS
0WARNING: NUMERICAL OSCILLATION ENCOUNTERED
 ONE OR MORE CELL CONCENTRATIONS LESS THAN CRHOREF
 SMALLEST DENSITY =  0.100E+04
 AT CELL (I,J,K) = (   1,  67,   8)

 
 SOLVING FOR HEAD 


     2 CALLS TO PCG ROUTINE FOR TIME STEP   1 IN STRESS PERIOD    1
     5 TOTAL ITERATIONS

 MAXIMUM HEAD CHANGE FOR EACH ITERATION (1 INDICATES THE FIRST INNER ITERATION):

    HEAD CHANGE    HEAD CHANGE    HEAD CHANGE    HEAD CHANGE    HEAD CHANGE 
   LAYER,ROW,COL  LAYER,ROW,COL  LAYER,ROW,COL  LAYER,ROW,COL  LAYER,ROW,COL
 ---------------------------------------------------------------------------
  1 -0.1344E-02  0 -0.1503E-02  0  0.1868E-02  0  0.5578E-03  1  0.2848E-03
   ( 10,  1, 12)  ( 11,  1, 70)  ( 11,  1, 49)  ( 11,  1, 60)  ( 11,  1, 49)

 MAXIMUM RESIDUAL FOR EACH ITERATION (1 INDICATES THE FIRST INNER ITERATION):

    RESIDUAL       RESIDUAL       RESIDUAL       RESIDUAL       RESIDUAL    
   LAYER,ROW,COL  LAYER,ROW,COL  LAYER,ROW,COL  LAYER,ROW,COL  LAYER,ROW,COL
 ---------------------------------------------------------------------------
  1 -0.2822E+05  0  -8033.      0  -3552.      0  -2603.      1  -1713.    
   ( 20,  1, 92)  ( 20,  1, 92)  ( 20,  1, 92)  ( 20,  1, 92)  ( 20,  1, 92)


 FLOW MODEL IS TRANSIENT
 FLOW MODEL CONTAINS CONSTANT-HEAD CELLS


 MAXIMUM STEPSIZE DURING WHICH ANY PARTICLE CANNOT MOVE MORE THAN ONE CELL
 =  15.16    (WHEN MIN. R.F.=1)  AT K=  18, I=   1, J=  91

 MAXIMUM STEPSIZE WHICH MEETS STABILITY CRITERION OF THE ADVECTION TERM
 (FOR PURE FINITE-DIFFERENCE OPTION, MIXELM=0) 
 =  8.948    (WHEN MIN. R.F.=1)  AT K=  16, I=   1, J=  90


 TOTAL NUMBER OF POINT SOURCES/SINKS PRESENT IN THE FLOW MODEL =    30

 MAXIMUM STEPSIZE WHICH MEETS STABILITY CRITERION OF THE SINK & SOURCE TERM
 =  12.37    (WHEN MIN. R.F.=1)  AT K=  17, I=   1, J=  91

 MAXIMUM STEPSIZE WHICH MEETS STABILITY CRITERION OF THE DISPERSION TERM
 =  4.703    (WHEN MIN. R.F.=1)  AT K=  16, I=   1, J=  89
     1 CALLS TO GCG PACKAGE FOR TRANSPORT TIME STEP 290 IN FLOW TIME STEP   1 STRESS PERIOD   1
     4 TOTAL ITERATIONS
  MAXIMUM CONCENTRATION CHANGES FOR EACH ITERATION:
  MAX. CHANGE LAYER,ROW,COL MAX. CHANGE LAYER,ROW,COL MAX. CHANGE LAYER,ROW,COL MAX. CHANGE LAYER,ROW,COL MAX. CHANGE LAYER,ROW,COL
 ------------------------------------------------------------------------------------------------------------------------------------
   0.3301     ( 16,  1, 90)  0.6932E-03 ( 17,  1, 89)  0.1851E-04 ( 16,  1, 89)  0.1370E-06 ( 17,  1, 88)



 >>>>>>>>>>>>>>>>>>>>>>>>>>>>>>>>>>>>>>>>>>>>>>>>>>>>>>>FOR COMPONENT NO. 01<<<<<<<<<<<<<<<<<<<<<<<<<<<<<<<<<<<<<<<<<<<<<<<<<<<<<<<


                                            -------------------------------------------
                                                      TRANSPORT STEP NO.  290
                                            -------------------------------------------

 TOTAL ELAPSED TIME SINCE BEGINNING OF SIMULATION =   1894.119    D   
 .....................................................................

                     CUMMULATIVE MASS BUDGETS AT END OF TRANSPORT STEP  290, TIME STEP    1, STRESS PERIOD    1
                     ------------------------------------------------------------------------------------------

                                                             IN                           OUT
                                                      ----------------             ----------------
                               CONSTANT CONCENTRATION:    0.000000                    0.000000    
                                        CONSTANT HEAD:   0.3945368E+08              -0.4244638E+08
                                             RECHARGE:    0.000000                    0.000000    
                                MASS STORAGE (SOLUTE):   0.2598482E+08              -0.2299213E+08
                            ---------------------------------------------------------------------------
                                              [TOTAL]:   0.6543967E+08 KG           -0.6543967E+08 KG  

                                                          NET (IN - OUT):    1.473722    
                                                   DISCREPANCY (PERCENT):   0.2252032E-05
0WARNING: NUMERICAL OSCILLATION ENCOUNTERED
 ONE OR MORE CELL CONCENTRATIONS LESS THAN CRHOREF
 SMALLEST DENSITY =  0.100E+04
 AT CELL (I,J,K) = (   1,  67,   8)

 
 SOLVING FOR HEAD 


     2 CALLS TO PCG ROUTINE FOR TIME STEP   1 IN STRESS PERIOD    1
     4 TOTAL ITERATIONS

 MAXIMUM HEAD CHANGE FOR EACH ITERATION (1 INDICATES THE FIRST INNER ITERATION):

    HEAD CHANGE    HEAD CHANGE    HEAD CHANGE    HEAD CHANGE    HEAD CHANGE 
   LAYER,ROW,COL  LAYER,ROW,COL  LAYER,ROW,COL  LAYER,ROW,COL  LAYER,ROW,COL
 ---------------------------------------------------------------------------
  1 -0.1673E-02  0  0.2036E-02  0 -0.3520E-03  1  0.2788E-03
   ( 11,  1, 49)  ( 11,  1, 49)  ( 10,  1, 12)  ( 10,  1, 12)

 MAXIMUM RESIDUAL FOR EACH ITERATION (1 INDICATES THE FIRST INNER ITERATION):

    RESIDUAL       RESIDUAL       RESIDUAL       RESIDUAL       RESIDUAL    
   LAYER,ROW,COL  LAYER,ROW,COL  LAYER,ROW,COL  LAYER,ROW,COL  LAYER,ROW,COL
 ---------------------------------------------------------------------------
  1  -7343.      0   3503.      0   3517.      1   3397.    
   ( 22,  1, 54)  ( 22,  1, 92)  ( 22,  1, 92)  ( 22,  1, 92)


 FLOW MODEL IS TRANSIENT
 FLOW MODEL CONTAINS CONSTANT-HEAD CELLS


 MAXIMUM STEPSIZE DURING WHICH ANY PARTICLE CANNOT MOVE MORE THAN ONE CELL
 =  15.30    (WHEN MIN. R.F.=1)  AT K=  18, I=   1, J=  91

 MAXIMUM STEPSIZE WHICH MEETS STABILITY CRITERION OF THE ADVECTION TERM
 (FOR PURE FINITE-DIFFERENCE OPTION, MIXELM=0) 
 =  8.964    (WHEN MIN. R.F.=1)  AT K=  16, I=   1, J=  90


 TOTAL NUMBER OF POINT SOURCES/SINKS PRESENT IN THE FLOW MODEL =    30

 MAXIMUM STEPSIZE WHICH MEETS STABILITY CRITERION OF THE SINK & SOURCE TERM
 =  12.45    (WHEN MIN. R.F.=1)  AT K=  17, I=   1, J=  91

 MAXIMUM STEPSIZE WHICH MEETS STABILITY CRITERION OF THE DISPERSION TERM
 =  4.700    (WHEN MIN. R.F.=1)  AT K=  16, I=   1, J=  89
     1 CALLS TO GCG PACKAGE FOR TRANSPORT TIME STEP 291 IN FLOW TIME STEP   1 STRESS PERIOD   1
     4 TOTAL ITERATIONS
0WARNING: NUMERICAL OSCILLATION ENCOUNTERED
 ONE OR MORE CELL CONCENTRATIONS LESS THAN CRHOREF
 SMALLEST DENSITY =  0.100E+04
 AT CELL (I,J,K) = (   1,  67,   8)

 
 SOLVING FOR HEAD 


     2 CALLS TO PCG ROUTINE FOR TIME STEP   1 IN STRESS PERIOD    1
     5 TOTAL ITERATIONS

 MAXIMUM HEAD CHANGE FOR EACH ITERATION (1 INDICATES THE FIRST INNER ITERATION):

    HEAD CHANGE    HEAD CHANGE    HEAD CHANGE    HEAD CHANGE    HEAD CHANGE 
   LAYER,ROW,COL  LAYER,ROW,COL  LAYER,ROW,COL  LAYER,ROW,COL  LAYER,ROW,COL
 ---------------------------------------------------------------------------
  1 -0.1767E-02  0 -0.2017E-02  0  0.2514E-02  0  0.3751E-03  1 -0.2643E-03
   ( 10,  1, 12)  ( 11,  1, 49)  ( 11,  1, 49)  ( 11,  1, 61)  ( 11,  1, 64)

 MAXIMUM RESIDUAL FOR EACH ITERATION (1 INDICATES THE FIRST INNER ITERATION):

    RESIDUAL       RESIDUAL       RESIDUAL       RESIDUAL       RESIDUAL    
   LAYER,ROW,COL  LAYER,ROW,COL  LAYER,ROW,COL  LAYER,ROW,COL  LAYER,ROW,COL
 ---------------------------------------------------------------------------
  1  0.3430E+05  0  -9290.      0  -6023.      0  -4483.      1  -3102.    
   ( 23,  1, 92)  ( 21,  1, 92)  ( 21,  1, 92)  ( 21,  1, 92)  ( 21,  1, 92)


 FLOW MODEL IS TRANSIENT
 FLOW MODEL CONTAINS CONSTANT-HEAD CELLS


 MAXIMUM STEPSIZE DURING WHICH ANY PARTICLE CANNOT MOVE MORE THAN ONE CELL
 =  15.13    (WHEN MIN. R.F.=1)  AT K=  18, I=   1, J=  91

 MAXIMUM STEPSIZE WHICH MEETS STABILITY CRITERION OF THE ADVECTION TERM
 (FOR PURE FINITE-DIFFERENCE OPTION, MIXELM=0) 
 =  8.945    (WHEN MIN. R.F.=1)  AT K=  16, I=   1, J=  90


 TOTAL NUMBER OF POINT SOURCES/SINKS PRESENT IN THE FLOW MODEL =    30

 MAXIMUM STEPSIZE WHICH MEETS STABILITY CRITERION OF THE SINK & SOURCE TERM
 =  12.35    (WHEN MIN. R.F.=1)  AT K=  17, I=   1, J=  91

 MAXIMUM STEPSIZE WHICH MEETS STABILITY CRITERION OF THE DISPERSION TERM
 =  4.700    (WHEN MIN. R.F.=1)  AT K=  16, I=   1, J=  89
     1 CALLS TO GCG PACKAGE FOR TRANSPORT TIME STEP 292 IN FLOW TIME STEP   1 STRESS PERIOD   1
     4 TOTAL ITERATIONS
0WARNING: NUMERICAL OSCILLATION ENCOUNTERED
 ONE OR MORE CELL CONCENTRATIONS LESS THAN CRHOREF
 SMALLEST DENSITY =  0.100E+04
 AT CELL (I,J,K) = (   1,  67,   8)

 
 SOLVING FOR HEAD 


     1 CALLS TO PCG ROUTINE FOR TIME STEP   1 IN STRESS PERIOD    1
     1 TOTAL ITERATIONS

 MAXIMUM HEAD CHANGE FOR EACH ITERATION (1 INDICATES THE FIRST INNER ITERATION):

    HEAD CHANGE    HEAD CHANGE    HEAD CHANGE    HEAD CHANGE    HEAD CHANGE 
   LAYER,ROW,COL  LAYER,ROW,COL  LAYER,ROW,COL  LAYER,ROW,COL  LAYER,ROW,COL
 ---------------------------------------------------------------------------
  1 -0.9238E-03
   ( 11,  1, 49)

 MAXIMUM RESIDUAL FOR EACH ITERATION (1 INDICATES THE FIRST INNER ITERATION):

    RESIDUAL       RESIDUAL       RESIDUAL       RESIDUAL       RESIDUAL    
   LAYER,ROW,COL  LAYER,ROW,COL  LAYER,ROW,COL  LAYER,ROW,COL  LAYER,ROW,COL
 ---------------------------------------------------------------------------
  1   7874.    
   ( 20,  1, 92)


 FLOW MODEL IS TRANSIENT
 FLOW MODEL CONTAINS CONSTANT-HEAD CELLS


 MAXIMUM STEPSIZE DURING WHICH ANY PARTICLE CANNOT MOVE MORE THAN ONE CELL
 =  15.33    (WHEN MIN. R.F.=1)  AT K=  18, I=   1, J=  91

 MAXIMUM STEPSIZE WHICH MEETS STABILITY CRITERION OF THE ADVECTION TERM
 (FOR PURE FINITE-DIFFERENCE OPTION, MIXELM=0) 
 =  8.946    (WHEN MIN. R.F.=1)  AT K=  16, I=   1, J=  90


 TOTAL NUMBER OF POINT SOURCES/SINKS PRESENT IN THE FLOW MODEL =    30

 MAXIMUM STEPSIZE WHICH MEETS STABILITY CRITERION OF THE SINK & SOURCE TERM
 =  12.45    (WHEN MIN. R.F.=1)  AT K=  17, I=   1, J=  91

 MAXIMUM STEPSIZE WHICH MEETS STABILITY CRITERION OF THE DISPERSION TERM
 =  4.686    (WHEN MIN. R.F.=1)  AT K=  16, I=   1, J=  89
     1 CALLS TO GCG PACKAGE FOR TRANSPORT TIME STEP 293 IN FLOW TIME STEP   1 STRESS PERIOD   1
     4 TOTAL ITERATIONS
0WARNING: NUMERICAL OSCILLATION ENCOUNTERED
 ONE OR MORE CELL CONCENTRATIONS LESS THAN CRHOREF
 SMALLEST DENSITY =  0.100E+04
 AT CELL (I,J,K) = (   1,  67,   8)

 
 SOLVING FOR HEAD 


     2 CALLS TO PCG ROUTINE FOR TIME STEP   1 IN STRESS PERIOD    1
     7 TOTAL ITERATIONS

 MAXIMUM HEAD CHANGE FOR EACH ITERATION (1 INDICATES THE FIRST INNER ITERATION):

    HEAD CHANGE    HEAD CHANGE    HEAD CHANGE    HEAD CHANGE    HEAD CHANGE 
   LAYER,ROW,COL  LAYER,ROW,COL  LAYER,ROW,COL  LAYER,ROW,COL  LAYER,ROW,COL
 ---------------------------------------------------------------------------
  1  0.4442E-02  0 -0.2652E-02  0 -0.4711E-02  0  0.1614E-02  0  0.1530E-02
   ( 11,  1, 49)  ( 10,  1, 12)  ( 11,  1, 49)  ( 11,  1, 49)  ( 11,  1, 69)
  0 -0.9427E-03  1 -0.3340E-03
   ( 11,  1, 69)  ( 11,  1, 65)

 MAXIMUM RESIDUAL FOR EACH ITERATION (1 INDICATES THE FIRST INNER ITERATION):

    RESIDUAL       RESIDUAL       RESIDUAL       RESIDUAL       RESIDUAL    
   LAYER,ROW,COL  LAYER,ROW,COL  LAYER,ROW,COL  LAYER,ROW,COL  LAYER,ROW,COL
 ---------------------------------------------------------------------------
  1  0.8751E+05  0  0.7155E+05  0 -0.1465E+05  0  -8958.      0  -2603.    
   ( 21,  1, 92)  ( 21,  1, 92)  ( 23,  1, 92)  ( 23,  1, 92)  ( 23,  1, 92)
  0   616.2      1   529.4    
   ( 22,  1, 90)  ( 20,  1, 93)


 FLOW MODEL IS TRANSIENT
 FLOW MODEL CONTAINS CONSTANT-HEAD CELLS


 MAXIMUM STEPSIZE DURING WHICH ANY PARTICLE CANNOT MOVE MORE THAN ONE CELL
 =  14.79    (WHEN MIN. R.F.=1)  AT K=  18, I=   1, J=  91

 MAXIMUM STEPSIZE WHICH MEETS STABILITY CRITERION OF THE ADVECTION TERM
 (FOR PURE FINITE-DIFFERENCE OPTION, MIXELM=0) 
 =  8.909    (WHEN MIN. R.F.=1)  AT K=  16, I=   1, J=  90


 TOTAL NUMBER OF POINT SOURCES/SINKS PRESENT IN THE FLOW MODEL =    30

 MAXIMUM STEPSIZE WHICH MEETS STABILITY CRITERION OF THE SINK & SOURCE TERM
 =  12.11    (WHEN MIN. R.F.=1)  AT K=  17, I=   1, J=  91

 MAXIMUM STEPSIZE WHICH MEETS STABILITY CRITERION OF THE DISPERSION TERM
 =  4.687    (WHEN MIN. R.F.=1)  AT K=  16, I=   1, J=  89
     1 CALLS TO GCG PACKAGE FOR TRANSPORT TIME STEP 294 IN FLOW TIME STEP   1 STRESS PERIOD   1
     4 TOTAL ITERATIONS
0WARNING: NUMERICAL OSCILLATION ENCOUNTERED
 ONE OR MORE CELL CONCENTRATIONS LESS THAN CRHOREF
 SMALLEST DENSITY =  0.100E+04
 AT CELL (I,J,K) = (   1,  67,   8)

 
 SOLVING FOR HEAD 


     1 CALLS TO PCG ROUTINE FOR TIME STEP   1 IN STRESS PERIOD    1
     1 TOTAL ITERATIONS

 MAXIMUM HEAD CHANGE FOR EACH ITERATION (1 INDICATES THE FIRST INNER ITERATION):

    HEAD CHANGE    HEAD CHANGE    HEAD CHANGE    HEAD CHANGE    HEAD CHANGE 
   LAYER,ROW,COL  LAYER,ROW,COL  LAYER,ROW,COL  LAYER,ROW,COL  LAYER,ROW,COL
 ---------------------------------------------------------------------------
  1 -0.9343E-03
   ( 23,  1, 69)

 MAXIMUM RESIDUAL FOR EACH ITERATION (1 INDICATES THE FIRST INNER ITERATION):

    RESIDUAL       RESIDUAL       RESIDUAL       RESIDUAL       RESIDUAL    
   LAYER,ROW,COL  LAYER,ROW,COL  LAYER,ROW,COL  LAYER,ROW,COL  LAYER,ROW,COL
 ---------------------------------------------------------------------------
  1  -9660.    
   ( 22,  1, 90)


 FLOW MODEL IS TRANSIENT
 FLOW MODEL CONTAINS CONSTANT-HEAD CELLS


 MAXIMUM STEPSIZE DURING WHICH ANY PARTICLE CANNOT MOVE MORE THAN ONE CELL
 =  14.94    (WHEN MIN. R.F.=1)  AT K=  18, I=   1, J=  91

 MAXIMUM STEPSIZE WHICH MEETS STABILITY CRITERION OF THE ADVECTION TERM
 (FOR PURE FINITE-DIFFERENCE OPTION, MIXELM=0) 
 =  8.931    (WHEN MIN. R.F.=1)  AT K=  16, I=   1, J=  90


 TOTAL NUMBER OF POINT SOURCES/SINKS PRESENT IN THE FLOW MODEL =    30

 MAXIMUM STEPSIZE WHICH MEETS STABILITY CRITERION OF THE SINK & SOURCE TERM
 =  12.20    (WHEN MIN. R.F.=1)  AT K=  17, I=   1, J=  91

 MAXIMUM STEPSIZE WHICH MEETS STABILITY CRITERION OF THE DISPERSION TERM
 =  4.683    (WHEN MIN. R.F.=1)  AT K=  16, I=   1, J=  89
     1 CALLS TO GCG PACKAGE FOR TRANSPORT TIME STEP 295 IN FLOW TIME STEP   1 STRESS PERIOD   1
     4 TOTAL ITERATIONS
  MAXIMUM CONCENTRATION CHANGES FOR EACH ITERATION:
  MAX. CHANGE LAYER,ROW,COL MAX. CHANGE LAYER,ROW,COL MAX. CHANGE LAYER,ROW,COL MAX. CHANGE LAYER,ROW,COL MAX. CHANGE LAYER,ROW,COL
 ------------------------------------------------------------------------------------------------------------------------------------
   0.3292     ( 16,  1, 90)  0.6495E-03 ( 17,  1, 89)  0.1720E-04 ( 16,  1, 89)  0.1317E-06 ( 17,  1, 88)
0WARNING: NUMERICAL OSCILLATION ENCOUNTERED
 ONE OR MORE CELL CONCENTRATIONS LESS THAN CRHOREF
 SMALLEST DENSITY =  0.100E+04
 AT CELL (I,J,K) = (   1,  67,   8)

 
 SOLVING FOR HEAD 


     2 CALLS TO PCG ROUTINE FOR TIME STEP   1 IN STRESS PERIOD    1
     5 TOTAL ITERATIONS

 MAXIMUM HEAD CHANGE FOR EACH ITERATION (1 INDICATES THE FIRST INNER ITERATION):

    HEAD CHANGE    HEAD CHANGE    HEAD CHANGE    HEAD CHANGE    HEAD CHANGE 
   LAYER,ROW,COL  LAYER,ROW,COL  LAYER,ROW,COL  LAYER,ROW,COL  LAYER,ROW,COL
 ---------------------------------------------------------------------------
  1  0.3040E-02  0  0.2752E-02  0 -0.3235E-02  0  0.9146E-03  1  0.2926E-03
   ( 21,  1, 68)  ( 10,  1, 12)  ( 11,  1, 60)  ( 11,  1, 59)  ( 11,  1, 51)

 MAXIMUM RESIDUAL FOR EACH ITERATION (1 INDICATES THE FIRST INNER ITERATION):

    RESIDUAL       RESIDUAL       RESIDUAL       RESIDUAL       RESIDUAL    
   LAYER,ROW,COL  LAYER,ROW,COL  LAYER,ROW,COL  LAYER,ROW,COL  LAYER,ROW,COL
 ---------------------------------------------------------------------------
  1  0.4929E+05  0  0.4047E+05  0   2134.      0  -1820.      1  -1375.    
   ( 22,  1, 89)  ( 22,  1, 89)  ( 22,  1, 89)  ( 22,  1, 91)  ( 22,  1, 91)


 FLOW MODEL IS TRANSIENT
 FLOW MODEL CONTAINS CONSTANT-HEAD CELLS


 MAXIMUM STEPSIZE DURING WHICH ANY PARTICLE CANNOT MOVE MORE THAN ONE CELL
 =  15.02    (WHEN MIN. R.F.=1)  AT K=  18, I=   1, J=  91

 MAXIMUM STEPSIZE WHICH MEETS STABILITY CRITERION OF THE ADVECTION TERM
 (FOR PURE FINITE-DIFFERENCE OPTION, MIXELM=0) 
 =  8.951    (WHEN MIN. R.F.=1)  AT K=  16, I=   1, J=  90


 TOTAL NUMBER OF POINT SOURCES/SINKS PRESENT IN THE FLOW MODEL =    30

 MAXIMUM STEPSIZE WHICH MEETS STABILITY CRITERION OF THE SINK & SOURCE TERM
 =  12.25    (WHEN MIN. R.F.=1)  AT K=  17, I=   1, J=  91

 MAXIMUM STEPSIZE WHICH MEETS STABILITY CRITERION OF THE DISPERSION TERM
 =  4.677    (WHEN MIN. R.F.=1)  AT K=  16, I=   1, J=  89
     1 CALLS TO GCG PACKAGE FOR TRANSPORT TIME STEP 296 IN FLOW TIME STEP   1 STRESS PERIOD   1
     4 TOTAL ITERATIONS
0WARNING: NUMERICAL OSCILLATION ENCOUNTERED
 ONE OR MORE CELL CONCENTRATIONS LESS THAN CRHOREF
 SMALLEST DENSITY =  0.100E+04
 AT CELL (I,J,K) = (   1,  67,   8)

 
 SOLVING FOR HEAD 


     2 CALLS TO PCG ROUTINE FOR TIME STEP   1 IN STRESS PERIOD    1
     4 TOTAL ITERATIONS

 MAXIMUM HEAD CHANGE FOR EACH ITERATION (1 INDICATES THE FIRST INNER ITERATION):

    HEAD CHANGE    HEAD CHANGE    HEAD CHANGE    HEAD CHANGE    HEAD CHANGE 
   LAYER,ROW,COL  LAYER,ROW,COL  LAYER,ROW,COL  LAYER,ROW,COL  LAYER,ROW,COL
 ---------------------------------------------------------------------------
  1 -0.9797E-03  0  0.1493E-02  0 -0.4941E-03  1  0.1625E-03
   ( 11,  1, 51)  ( 11,  1, 51)  ( 11,  1, 51)  ( 10,  1, 12)

 MAXIMUM RESIDUAL FOR EACH ITERATION (1 INDICATES THE FIRST INNER ITERATION):

    RESIDUAL       RESIDUAL       RESIDUAL       RESIDUAL       RESIDUAL    
   LAYER,ROW,COL  LAYER,ROW,COL  LAYER,ROW,COL  LAYER,ROW,COL  LAYER,ROW,COL
 ---------------------------------------------------------------------------
  1 -0.1292E+05  0  -1284.      0  -1158.      1  -1140.    
   ( 21,  1, 90)  ( 22,  1, 92)  ( 22,  1, 92)  ( 22,  1, 92)


 FLOW MODEL IS TRANSIENT
 FLOW MODEL CONTAINS CONSTANT-HEAD CELLS


 MAXIMUM STEPSIZE DURING WHICH ANY PARTICLE CANNOT MOVE MORE THAN ONE CELL
 =  15.03    (WHEN MIN. R.F.=1)  AT K=  18, I=   1, J=  91

 MAXIMUM STEPSIZE WHICH MEETS STABILITY CRITERION OF THE ADVECTION TERM
 (FOR PURE FINITE-DIFFERENCE OPTION, MIXELM=0) 
 =  8.953    (WHEN MIN. R.F.=1)  AT K=  16, I=   1, J=  90


 TOTAL NUMBER OF POINT SOURCES/SINKS PRESENT IN THE FLOW MODEL =    30

 MAXIMUM STEPSIZE WHICH MEETS STABILITY CRITERION OF THE SINK & SOURCE TERM
 =  12.26    (WHEN MIN. R.F.=1)  AT K=  17, I=   1, J=  91

 MAXIMUM STEPSIZE WHICH MEETS STABILITY CRITERION OF THE DISPERSION TERM
 =  4.680    (WHEN MIN. R.F.=1)  AT K=  16, I=   1, J=  89
     1 CALLS TO GCG PACKAGE FOR TRANSPORT TIME STEP 297 IN FLOW TIME STEP   1 STRESS PERIOD   1
     4 TOTAL ITERATIONS
0WARNING: NUMERICAL OSCILLATION ENCOUNTERED
 ONE OR MORE CELL CONCENTRATIONS LESS THAN CRHOREF
 SMALLEST DENSITY =  0.100E+04
 AT CELL (I,J,K) = (   1,  67,   8)

 
 SOLVING FOR HEAD 


     2 CALLS TO PCG ROUTINE FOR TIME STEP   1 IN STRESS PERIOD    1
     3 TOTAL ITERATIONS

 MAXIMUM HEAD CHANGE FOR EACH ITERATION (1 INDICATES THE FIRST INNER ITERATION):

    HEAD CHANGE    HEAD CHANGE    HEAD CHANGE    HEAD CHANGE    HEAD CHANGE 
   LAYER,ROW,COL  LAYER,ROW,COL  LAYER,ROW,COL  LAYER,ROW,COL  LAYER,ROW,COL
 ---------------------------------------------------------------------------
  1 -0.1303E-02  0  0.9780E-03  1 -0.8448E-03
   ( 11,  1, 66)  ( 10,  1, 12)  ( 10,  1, 12)

 MAXIMUM RESIDUAL FOR EACH ITERATION (1 INDICATES THE FIRST INNER ITERATION):

    RESIDUAL       RESIDUAL       RESIDUAL       RESIDUAL       RESIDUAL    
   LAYER,ROW,COL  LAYER,ROW,COL  LAYER,ROW,COL  LAYER,ROW,COL  LAYER,ROW,COL
 ---------------------------------------------------------------------------
  1  0.1156E+05  0   9270.      1   9093.    
   ( 21,  1, 89)  ( 21,  1, 89)  ( 21,  1, 89)


 FLOW MODEL IS TRANSIENT
 FLOW MODEL CONTAINS CONSTANT-HEAD CELLS


 MAXIMUM STEPSIZE DURING WHICH ANY PARTICLE CANNOT MOVE MORE THAN ONE CELL
 =  15.16    (WHEN MIN. R.F.=1)  AT K=  18, I=   1, J=  91

 MAXIMUM STEPSIZE WHICH MEETS STABILITY CRITERION OF THE ADVECTION TERM
 (FOR PURE FINITE-DIFFERENCE OPTION, MIXELM=0) 
 =  8.960    (WHEN MIN. R.F.=1)  AT K=  16, I=   1, J=  90


 TOTAL NUMBER OF POINT SOURCES/SINKS PRESENT IN THE FLOW MODEL =    30

 MAXIMUM STEPSIZE WHICH MEETS STABILITY CRITERION OF THE SINK & SOURCE TERM
 =  12.36    (WHEN MIN. R.F.=1)  AT K=  17, I=   1, J=  91

 MAXIMUM STEPSIZE WHICH MEETS STABILITY CRITERION OF THE DISPERSION TERM
 =  4.673    (WHEN MIN. R.F.=1)  AT K=  16, I=   1, J=  89
     1 CALLS TO GCG PACKAGE FOR TRANSPORT TIME STEP 298 IN FLOW TIME STEP   1 STRESS PERIOD   1
     4 TOTAL ITERATIONS
0WARNING: NUMERICAL OSCILLATION ENCOUNTERED
 ONE OR MORE CELL CONCENTRATIONS LESS THAN CRHOREF
 SMALLEST DENSITY =  0.100E+04
 AT CELL (I,J,K) = (   1,  67,   8)

 
 SOLVING FOR HEAD 


     2 CALLS TO PCG ROUTINE FOR TIME STEP   1 IN STRESS PERIOD    1
     6 TOTAL ITERATIONS

 MAXIMUM HEAD CHANGE FOR EACH ITERATION (1 INDICATES THE FIRST INNER ITERATION):

    HEAD CHANGE    HEAD CHANGE    HEAD CHANGE    HEAD CHANGE    HEAD CHANGE 
   LAYER,ROW,COL  LAYER,ROW,COL  LAYER,ROW,COL  LAYER,ROW,COL  LAYER,ROW,COL
 ---------------------------------------------------------------------------
  1  0.2795E-02  0  0.3211E-02  0 -0.3815E-02  0  0.1383E-02  0 -0.2796E-03
   ( 10,  1, 12)  ( 11,  1, 66)  ( 11,  1, 51)  ( 11,  1, 51)  ( 11,  1, 70)
  1  0.2770E-03
   ( 11,  1, 70)

 MAXIMUM RESIDUAL FOR EACH ITERATION (1 INDICATES THE FIRST INNER ITERATION):

    RESIDUAL       RESIDUAL       RESIDUAL       RESIDUAL       RESIDUAL    
   LAYER,ROW,COL  LAYER,ROW,COL  LAYER,ROW,COL  LAYER,ROW,COL  LAYER,ROW,COL
 ---------------------------------------------------------------------------
  1 -0.1004E+06  0 -0.3458E+05  0  -2644.      0  -1865.      0  -1172.    
   ( 20,  1, 89)  ( 21,  1, 88)  ( 21,  1, 88)  ( 19,  1, 86)  ( 23,  1, 92)
  1  -1053.    
   ( 19,  1, 86)


 FLOW MODEL IS TRANSIENT
 FLOW MODEL CONTAINS CONSTANT-HEAD CELLS


 MAXIMUM STEPSIZE DURING WHICH ANY PARTICLE CANNOT MOVE MORE THAN ONE CELL
 =  15.18    (WHEN MIN. R.F.=1)  AT K=  18, I=   1, J=  91

 MAXIMUM STEPSIZE WHICH MEETS STABILITY CRITERION OF THE ADVECTION TERM
 (FOR PURE FINITE-DIFFERENCE OPTION, MIXELM=0) 
 =  8.973    (WHEN MIN. R.F.=1)  AT K=  16, I=   1, J=  90


 TOTAL NUMBER OF POINT SOURCES/SINKS PRESENT IN THE FLOW MODEL =    30

 MAXIMUM STEPSIZE WHICH MEETS STABILITY CRITERION OF THE SINK & SOURCE TERM
 =  12.36    (WHEN MIN. R.F.=1)  AT K=  17, I=   1, J=  91

 MAXIMUM STEPSIZE WHICH MEETS STABILITY CRITERION OF THE DISPERSION TERM
 =  4.674    (WHEN MIN. R.F.=1)  AT K=  16, I=   1, J=  89
     1 CALLS TO GCG PACKAGE FOR TRANSPORT TIME STEP 299 IN FLOW TIME STEP   1 STRESS PERIOD   1
     4 TOTAL ITERATIONS
0WARNING: NUMERICAL OSCILLATION ENCOUNTERED
 ONE OR MORE CELL CONCENTRATIONS LESS THAN CRHOREF
 SMALLEST DENSITY =  0.100E+04
 AT CELL (I,J,K) = (   1,  67,   8)

 
 SOLVING FOR HEAD 


     2 CALLS TO PCG ROUTINE FOR TIME STEP   1 IN STRESS PERIOD    1
     3 TOTAL ITERATIONS

 MAXIMUM HEAD CHANGE FOR EACH ITERATION (1 INDICATES THE FIRST INNER ITERATION):

    HEAD CHANGE    HEAD CHANGE    HEAD CHANGE    HEAD CHANGE    HEAD CHANGE 
   LAYER,ROW,COL  LAYER,ROW,COL  LAYER,ROW,COL  LAYER,ROW,COL  LAYER,ROW,COL
 ---------------------------------------------------------------------------
  1 -0.8918E-03  0 -0.8905E-03  1  0.8550E-03
   ( 16,  1, 68)  ( 10,  1, 12)  ( 10,  1, 12)

 MAXIMUM RESIDUAL FOR EACH ITERATION (1 INDICATES THE FIRST INNER ITERATION):

    RESIDUAL       RESIDUAL       RESIDUAL       RESIDUAL       RESIDUAL    
   LAYER,ROW,COL  LAYER,ROW,COL  LAYER,ROW,COL  LAYER,ROW,COL  LAYER,ROW,COL
 ---------------------------------------------------------------------------
  1  0.1157E+05  0   3725.      1   3689.    
   ( 20,  1, 89)  ( 19,  1, 90)  ( 19,  1, 90)


 FLOW MODEL IS TRANSIENT
 FLOW MODEL CONTAINS CONSTANT-HEAD CELLS


 MAXIMUM STEPSIZE DURING WHICH ANY PARTICLE CANNOT MOVE MORE THAN ONE CELL
 =  15.21    (WHEN MIN. R.F.=1)  AT K=  18, I=   1, J=  91

 MAXIMUM STEPSIZE WHICH MEETS STABILITY CRITERION OF THE ADVECTION TERM
 (FOR PURE FINITE-DIFFERENCE OPTION, MIXELM=0) 
 =  8.989    (WHEN MIN. R.F.=1)  AT K=  16, I=   1, J=  90


 TOTAL NUMBER OF POINT SOURCES/SINKS PRESENT IN THE FLOW MODEL =    30

 MAXIMUM STEPSIZE WHICH MEETS STABILITY CRITERION OF THE SINK & SOURCE TERM
 =  12.39    (WHEN MIN. R.F.=1)  AT K=  17, I=   1, J=  91

 MAXIMUM STEPSIZE WHICH MEETS STABILITY CRITERION OF THE DISPERSION TERM
 =  4.675    (WHEN MIN. R.F.=1)  AT K=  16, I=   1, J=  89
     1 CALLS TO GCG PACKAGE FOR TRANSPORT TIME STEP 300 IN FLOW TIME STEP   1 STRESS PERIOD   1
     4 TOTAL ITERATIONS
  MAXIMUM CONCENTRATION CHANGES FOR EACH ITERATION:
  MAX. CHANGE LAYER,ROW,COL MAX. CHANGE LAYER,ROW,COL MAX. CHANGE LAYER,ROW,COL MAX. CHANGE LAYER,ROW,COL MAX. CHANGE LAYER,ROW,COL
 ------------------------------------------------------------------------------------------------------------------------------------
   0.3292     ( 16,  1, 90)  0.6641E-03 ( 17,  1, 89)  0.1801E-04 ( 16,  1, 89)  0.1393E-06 ( 17,  1, 88)



 >>>>>>>>>>>>>>>>>>>>>>>>>>>>>>>>>>>>>>>>>>>>>>>>>>>>>>>FOR COMPONENT NO. 01<<<<<<<<<<<<<<<<<<<<<<<<<<<<<<<<<<<<<<<<<<<<<<<<<<<<<<<


                                            -------------------------------------------
                                                      TRANSPORT STEP NO.  300
                                            -------------------------------------------

 TOTAL ELAPSED TIME SINCE BEGINNING OF SIMULATION =   1938.859    D   
 .....................................................................

                     CUMMULATIVE MASS BUDGETS AT END OF TRANSPORT STEP  300, TIME STEP    1, STRESS PERIOD    1
                     ------------------------------------------------------------------------------------------

                                                             IN                           OUT
                                                      ----------------             ----------------
                               CONSTANT CONCENTRATION:    0.000000                    0.000000    
                                        CONSTANT HEAD:   0.4121229E+08              -0.4416974E+08
                                             RECHARGE:    0.000000                    0.000000    
                                MASS STORAGE (SOLUTE):   0.2611485E+08              -0.2315740E+08
                            ---------------------------------------------------------------------------
                                              [TOTAL]:   0.6732832E+08 KG           -0.6732831E+08 KG  

                                                          NET (IN - OUT):    1.507116    
                                                   DISCREPANCY (PERCENT):   0.2238459E-05
0WARNING: NUMERICAL OSCILLATION ENCOUNTERED
 ONE OR MORE CELL CONCENTRATIONS LESS THAN CRHOREF
 SMALLEST DENSITY =  0.100E+04
 AT CELL (I,J,K) = (   1,  67,   8)

 
 SOLVING FOR HEAD 


     2 CALLS TO PCG ROUTINE FOR TIME STEP   1 IN STRESS PERIOD    1
     4 TOTAL ITERATIONS

 MAXIMUM HEAD CHANGE FOR EACH ITERATION (1 INDICATES THE FIRST INNER ITERATION):

    HEAD CHANGE    HEAD CHANGE    HEAD CHANGE    HEAD CHANGE    HEAD CHANGE 
   LAYER,ROW,COL  LAYER,ROW,COL  LAYER,ROW,COL  LAYER,ROW,COL  LAYER,ROW,COL
 ---------------------------------------------------------------------------
  1 -0.1784E-02  0  0.1701E-02  0  0.9048E-03  1  0.3211E-03
   ( 10,  1, 12)  ( 10,  1, 12)  ( 11,  1, 49)  ( 11,  1, 38)

 MAXIMUM RESIDUAL FOR EACH ITERATION (1 INDICATES THE FIRST INNER ITERATION):

    RESIDUAL       RESIDUAL       RESIDUAL       RESIDUAL       RESIDUAL    
   LAYER,ROW,COL  LAYER,ROW,COL  LAYER,ROW,COL  LAYER,ROW,COL  LAYER,ROW,COL
 ---------------------------------------------------------------------------
  1 -0.1095E+05  0  -4075.      0  -2224.      1  -1916.    
   ( 21,  1, 90)  ( 19,  1, 89)  ( 21,  1, 90)  ( 21,  1, 90)


 FLOW MODEL IS TRANSIENT
 FLOW MODEL CONTAINS CONSTANT-HEAD CELLS


 MAXIMUM STEPSIZE DURING WHICH ANY PARTICLE CANNOT MOVE MORE THAN ONE CELL
 =  15.19    (WHEN MIN. R.F.=1)  AT K=  18, I=   1, J=  91

 MAXIMUM STEPSIZE WHICH MEETS STABILITY CRITERION OF THE ADVECTION TERM
 (FOR PURE FINITE-DIFFERENCE OPTION, MIXELM=0) 
 =  8.985    (WHEN MIN. R.F.=1)  AT K=  16, I=   1, J=  90


 TOTAL NUMBER OF POINT SOURCES/SINKS PRESENT IN THE FLOW MODEL =    30

 MAXIMUM STEPSIZE WHICH MEETS STABILITY CRITERION OF THE SINK & SOURCE TERM
 =  12.38    (WHEN MIN. R.F.=1)  AT K=  17, I=   1, J=  91

 MAXIMUM STEPSIZE WHICH MEETS STABILITY CRITERION OF THE DISPERSION TERM
 =  4.676    (WHEN MIN. R.F.=1)  AT K=  16, I=   1, J=  89
     1 CALLS TO GCG PACKAGE FOR TRANSPORT TIME STEP 301 IN FLOW TIME STEP   1 STRESS PERIOD   1
     4 TOTAL ITERATIONS
0WARNING: NUMERICAL OSCILLATION ENCOUNTERED
 ONE OR MORE CELL CONCENTRATIONS LESS THAN CRHOREF
 SMALLEST DENSITY =  0.100E+04
 AT CELL (I,J,K) = (   1,  67,   8)

 
 SOLVING FOR HEAD 


     1 CALLS TO PCG ROUTINE FOR TIME STEP   1 IN STRESS PERIOD    1
     1 TOTAL ITERATIONS

 MAXIMUM HEAD CHANGE FOR EACH ITERATION (1 INDICATES THE FIRST INNER ITERATION):

    HEAD CHANGE    HEAD CHANGE    HEAD CHANGE    HEAD CHANGE    HEAD CHANGE 
   LAYER,ROW,COL  LAYER,ROW,COL  LAYER,ROW,COL  LAYER,ROW,COL  LAYER,ROW,COL
 ---------------------------------------------------------------------------
  1 -0.8112E-03
   ( 11,  1, 38)

 MAXIMUM RESIDUAL FOR EACH ITERATION (1 INDICATES THE FIRST INNER ITERATION):

    RESIDUAL       RESIDUAL       RESIDUAL       RESIDUAL       RESIDUAL    
   LAYER,ROW,COL  LAYER,ROW,COL  LAYER,ROW,COL  LAYER,ROW,COL  LAYER,ROW,COL
 ---------------------------------------------------------------------------
  1   9109.    
   ( 23,  1, 93)


 FLOW MODEL IS TRANSIENT
 FLOW MODEL CONTAINS CONSTANT-HEAD CELLS


 MAXIMUM STEPSIZE DURING WHICH ANY PARTICLE CANNOT MOVE MORE THAN ONE CELL
 =  15.35    (WHEN MIN. R.F.=1)  AT K=  18, I=   1, J=  91

 MAXIMUM STEPSIZE WHICH MEETS STABILITY CRITERION OF THE ADVECTION TERM
 (FOR PURE FINITE-DIFFERENCE OPTION, MIXELM=0) 
 =  8.968    (WHEN MIN. R.F.=1)  AT K=  16, I=   1, J=  90


 TOTAL NUMBER OF POINT SOURCES/SINKS PRESENT IN THE FLOW MODEL =    30

 MAXIMUM STEPSIZE WHICH MEETS STABILITY CRITERION OF THE SINK & SOURCE TERM
 =  12.45    (WHEN MIN. R.F.=1)  AT K=  17, I=   1, J=  91

 MAXIMUM STEPSIZE WHICH MEETS STABILITY CRITERION OF THE DISPERSION TERM
 =  4.672    (WHEN MIN. R.F.=1)  AT K=  16, I=   1, J=  89
     1 CALLS TO GCG PACKAGE FOR TRANSPORT TIME STEP 302 IN FLOW TIME STEP   1 STRESS PERIOD   1
     4 TOTAL ITERATIONS
0WARNING: NUMERICAL OSCILLATION ENCOUNTERED
 ONE OR MORE CELL CONCENTRATIONS LESS THAN CRHOREF
 SMALLEST DENSITY =  0.100E+04
 AT CELL (I,J,K) = (   1,  67,   8)

 
 SOLVING FOR HEAD 


     2 CALLS TO PCG ROUTINE FOR TIME STEP   1 IN STRESS PERIOD    1
     7 TOTAL ITERATIONS

 MAXIMUM HEAD CHANGE FOR EACH ITERATION (1 INDICATES THE FIRST INNER ITERATION):

    HEAD CHANGE    HEAD CHANGE    HEAD CHANGE    HEAD CHANGE    HEAD CHANGE 
   LAYER,ROW,COL  LAYER,ROW,COL  LAYER,ROW,COL  LAYER,ROW,COL  LAYER,ROW,COL
 ---------------------------------------------------------------------------
  1  0.3703E-02  0 -0.3707E-02  0 -0.4886E-02  0 -0.1589E-02  0  0.1140E-02
   ( 10,  1, 12)  ( 10,  1, 12)  ( 11,  1, 38)  ( 11,  1, 50)  ( 11,  1, 65)
  0 -0.4571E-03  1 -0.2970E-03
   ( 11,  1, 65)  ( 11,  1, 70)

 MAXIMUM RESIDUAL FOR EACH ITERATION (1 INDICATES THE FIRST INNER ITERATION):

    RESIDUAL       RESIDUAL       RESIDUAL       RESIDUAL       RESIDUAL    
   LAYER,ROW,COL  LAYER,ROW,COL  LAYER,ROW,COL  LAYER,ROW,COL  LAYER,ROW,COL
 ---------------------------------------------------------------------------
  1 -0.1170E+06  0 -0.6188E+05  0  0.1155E+05  0   6367.      0   2772.    
   ( 22,  1, 93)  ( 22,  1, 93)  ( 23,  1, 93)  ( 23,  1, 93)  ( 23,  1, 93)
  0   777.1      1   681.2    
   ( 23,  1, 93)  ( 23,  1, 93)


 FLOW MODEL IS TRANSIENT
 FLOW MODEL CONTAINS CONSTANT-HEAD CELLS


 MAXIMUM STEPSIZE DURING WHICH ANY PARTICLE CANNOT MOVE MORE THAN ONE CELL
 =  14.92    (WHEN MIN. R.F.=1)  AT K=  18, I=   1, J=  91

 MAXIMUM STEPSIZE WHICH MEETS STABILITY CRITERION OF THE ADVECTION TERM
 (FOR PURE FINITE-DIFFERENCE OPTION, MIXELM=0) 
 =  8.913    (WHEN MIN. R.F.=1)  AT K=  16, I=   1, J=  90


 TOTAL NUMBER OF POINT SOURCES/SINKS PRESENT IN THE FLOW MODEL =    30

 MAXIMUM STEPSIZE WHICH MEETS STABILITY CRITERION OF THE SINK & SOURCE TERM
 =  12.19    (WHEN MIN. R.F.=1)  AT K=  17, I=   1, J=  91

 MAXIMUM STEPSIZE WHICH MEETS STABILITY CRITERION OF THE DISPERSION TERM
 =  4.679    (WHEN MIN. R.F.=1)  AT K=  16, I=   1, J=  89
     1 CALLS TO GCG PACKAGE FOR TRANSPORT TIME STEP 303 IN FLOW TIME STEP   1 STRESS PERIOD   1
     4 TOTAL ITERATIONS
0WARNING: NUMERICAL OSCILLATION ENCOUNTERED
 ONE OR MORE CELL CONCENTRATIONS LESS THAN CRHOREF
 SMALLEST DENSITY =  0.100E+04
 AT CELL (I,J,K) = (   1,  67,   8)

 
 SOLVING FOR HEAD 


     2 CALLS TO PCG ROUTINE FOR TIME STEP   1 IN STRESS PERIOD    1
     3 TOTAL ITERATIONS

 MAXIMUM HEAD CHANGE FOR EACH ITERATION (1 INDICATES THE FIRST INNER ITERATION):

    HEAD CHANGE    HEAD CHANGE    HEAD CHANGE    HEAD CHANGE    HEAD CHANGE 
   LAYER,ROW,COL  LAYER,ROW,COL  LAYER,ROW,COL  LAYER,ROW,COL  LAYER,ROW,COL
 ---------------------------------------------------------------------------
  1 -0.8999E-03  0  0.8322E-03  1  0.7398E-03
   ( 23,  1, 69)  ( 11,  1, 65)  ( 10,  1, 12)

 MAXIMUM RESIDUAL FOR EACH ITERATION (1 INDICATES THE FIRST INNER ITERATION):

    RESIDUAL       RESIDUAL       RESIDUAL       RESIDUAL       RESIDUAL    
   LAYER,ROW,COL  LAYER,ROW,COL  LAYER,ROW,COL  LAYER,ROW,COL  LAYER,ROW,COL
 ---------------------------------------------------------------------------
  1  0.1048E+05  0   2014.      1   1989.    
   ( 21,  1, 88)  ( 21,  1, 88)  ( 21,  1, 88)


 FLOW MODEL IS TRANSIENT
 FLOW MODEL CONTAINS CONSTANT-HEAD CELLS


 MAXIMUM STEPSIZE DURING WHICH ANY PARTICLE CANNOT MOVE MORE THAN ONE CELL
 =  14.99    (WHEN MIN. R.F.=1)  AT K=  18, I=   1, J=  91

 MAXIMUM STEPSIZE WHICH MEETS STABILITY CRITERION OF THE ADVECTION TERM
 (FOR PURE FINITE-DIFFERENCE OPTION, MIXELM=0) 
 =  8.913    (WHEN MIN. R.F.=1)  AT K=  16, I=   1, J=  90


 TOTAL NUMBER OF POINT SOURCES/SINKS PRESENT IN THE FLOW MODEL =    30

 MAXIMUM STEPSIZE WHICH MEETS STABILITY CRITERION OF THE SINK & SOURCE TERM
 =  12.23    (WHEN MIN. R.F.=1)  AT K=  17, I=   1, J=  91

 MAXIMUM STEPSIZE WHICH MEETS STABILITY CRITERION OF THE DISPERSION TERM
 =  4.681    (WHEN MIN. R.F.=1)  AT K=  16, I=   1, J=  89
     1 CALLS TO GCG PACKAGE FOR TRANSPORT TIME STEP 304 IN FLOW TIME STEP   1 STRESS PERIOD   1
     4 TOTAL ITERATIONS
0WARNING: NUMERICAL OSCILLATION ENCOUNTERED
 ONE OR MORE CELL CONCENTRATIONS LESS THAN CRHOREF
 SMALLEST DENSITY =  0.100E+04
 AT CELL (I,J,K) = (   1,  67,   8)

 
 SOLVING FOR HEAD 


     2 CALLS TO PCG ROUTINE FOR TIME STEP   1 IN STRESS PERIOD    1
     5 TOTAL ITERATIONS

 MAXIMUM HEAD CHANGE FOR EACH ITERATION (1 INDICATES THE FIRST INNER ITERATION):

    HEAD CHANGE    HEAD CHANGE    HEAD CHANGE    HEAD CHANGE    HEAD CHANGE 
   LAYER,ROW,COL  LAYER,ROW,COL  LAYER,ROW,COL  LAYER,ROW,COL  LAYER,ROW,COL
 ---------------------------------------------------------------------------
  1 -0.1038E-02  0  0.1045E-02  0  0.1016E-02  0 -0.1905E-03  1 -0.1185E-03
   ( 10,  1, 12)  ( 10,  1, 12)  ( 11,  1, 52)  ( 11,  1, 52)  ( 11,  1, 65)

 MAXIMUM RESIDUAL FOR EACH ITERATION (1 INDICATES THE FIRST INNER ITERATION):

    RESIDUAL       RESIDUAL       RESIDUAL       RESIDUAL       RESIDUAL    
   LAYER,ROW,COL  LAYER,ROW,COL  LAYER,ROW,COL  LAYER,ROW,COL  LAYER,ROW,COL
 ---------------------------------------------------------------------------
  1   5099.      0   2360.      0  -886.2      0  -768.2      1  -447.2    
   ( 21,  1, 88)  ( 20,  1, 89)  ( 22,  1, 94)  ( 22,  1, 94)  ( 22,  1, 94)


 FLOW MODEL IS TRANSIENT
 FLOW MODEL CONTAINS CONSTANT-HEAD CELLS


 MAXIMUM STEPSIZE DURING WHICH ANY PARTICLE CANNOT MOVE MORE THAN ONE CELL
 =  15.04    (WHEN MIN. R.F.=1)  AT K=  18, I=   1, J=  91

 MAXIMUM STEPSIZE WHICH MEETS STABILITY CRITERION OF THE ADVECTION TERM
 (FOR PURE FINITE-DIFFERENCE OPTION, MIXELM=0) 
 =  8.920    (WHEN MIN. R.F.=1)  AT K=  16, I=   1, J=  90


 TOTAL NUMBER OF POINT SOURCES/SINKS PRESENT IN THE FLOW MODEL =    30

 MAXIMUM STEPSIZE WHICH MEETS STABILITY CRITERION OF THE SINK & SOURCE TERM
 =  12.26    (WHEN MIN. R.F.=1)  AT K=  17, I=   1, J=  91

 MAXIMUM STEPSIZE WHICH MEETS STABILITY CRITERION OF THE DISPERSION TERM
 =  4.681    (WHEN MIN. R.F.=1)  AT K=  16, I=   1, J=  89
     1 CALLS TO GCG PACKAGE FOR TRANSPORT TIME STEP 305 IN FLOW TIME STEP   1 STRESS PERIOD   1
     4 TOTAL ITERATIONS
  MAXIMUM CONCENTRATION CHANGES FOR EACH ITERATION:
  MAX. CHANGE LAYER,ROW,COL MAX. CHANGE LAYER,ROW,COL MAX. CHANGE LAYER,ROW,COL MAX. CHANGE LAYER,ROW,COL MAX. CHANGE LAYER,ROW,COL
 ------------------------------------------------------------------------------------------------------------------------------------
   0.3295     ( 16,  1, 90)  0.6865E-03 ( 17,  1, 89)  0.1835E-04 ( 16,  1, 89)  0.1379E-06 ( 17,  1, 88)
0WARNING: NUMERICAL OSCILLATION ENCOUNTERED
 ONE OR MORE CELL CONCENTRATIONS LESS THAN CRHOREF
 SMALLEST DENSITY =  0.100E+04
 AT CELL (I,J,K) = (   1,  67,   8)

 
 SOLVING FOR HEAD 


     1 CALLS TO PCG ROUTINE FOR TIME STEP   1 IN STRESS PERIOD    1
     1 TOTAL ITERATIONS

 MAXIMUM HEAD CHANGE FOR EACH ITERATION (1 INDICATES THE FIRST INNER ITERATION):

    HEAD CHANGE    HEAD CHANGE    HEAD CHANGE    HEAD CHANGE    HEAD CHANGE 
   LAYER,ROW,COL  LAYER,ROW,COL  LAYER,ROW,COL  LAYER,ROW,COL  LAYER,ROW,COL
 ---------------------------------------------------------------------------
  1 -0.8152E-03
   ( 16,  1, 68)

 MAXIMUM RESIDUAL FOR EACH ITERATION (1 INDICATES THE FIRST INNER ITERATION):

    RESIDUAL       RESIDUAL       RESIDUAL       RESIDUAL       RESIDUAL    
   LAYER,ROW,COL  LAYER,ROW,COL  LAYER,ROW,COL  LAYER,ROW,COL  LAYER,ROW,COL
 ---------------------------------------------------------------------------
  1  -7754.    
   ( 22,  1, 54)


 FLOW MODEL IS TRANSIENT
 FLOW MODEL CONTAINS CONSTANT-HEAD CELLS


 MAXIMUM STEPSIZE DURING WHICH ANY PARTICLE CANNOT MOVE MORE THAN ONE CELL
 =  15.12    (WHEN MIN. R.F.=1)  AT K=  18, I=   1, J=  91

 MAXIMUM STEPSIZE WHICH MEETS STABILITY CRITERION OF THE ADVECTION TERM
 (FOR PURE FINITE-DIFFERENCE OPTION, MIXELM=0) 
 =  8.922    (WHEN MIN. R.F.=1)  AT K=  16, I=   1, J=  90


 TOTAL NUMBER OF POINT SOURCES/SINKS PRESENT IN THE FLOW MODEL =    30

 MAXIMUM STEPSIZE WHICH MEETS STABILITY CRITERION OF THE SINK & SOURCE TERM
 =  12.32    (WHEN MIN. R.F.=1)  AT K=  17, I=   1, J=  91

 MAXIMUM STEPSIZE WHICH MEETS STABILITY CRITERION OF THE DISPERSION TERM
 =  4.681    (WHEN MIN. R.F.=1)  AT K=  16, I=   1, J=  89
     1 CALLS TO GCG PACKAGE FOR TRANSPORT TIME STEP 306 IN FLOW TIME STEP   1 STRESS PERIOD   1
     4 TOTAL ITERATIONS
0WARNING: NUMERICAL OSCILLATION ENCOUNTERED
 ONE OR MORE CELL CONCENTRATIONS LESS THAN CRHOREF
 SMALLEST DENSITY =  0.100E+04
 AT CELL (I,J,K) = (   1,  67,   8)

 
 SOLVING FOR HEAD 


     2 CALLS TO PCG ROUTINE FOR TIME STEP   1 IN STRESS PERIOD    1
     6 TOTAL ITERATIONS

 MAXIMUM HEAD CHANGE FOR EACH ITERATION (1 INDICATES THE FIRST INNER ITERATION):

    HEAD CHANGE    HEAD CHANGE    HEAD CHANGE    HEAD CHANGE    HEAD CHANGE 
   LAYER,ROW,COL  LAYER,ROW,COL  LAYER,ROW,COL  LAYER,ROW,COL  LAYER,ROW,COL
 ---------------------------------------------------------------------------
  1  0.2487E-02  0  0.2272E-02  0 -0.2701E-02  0 -0.1269E-02  0  0.3591E-03
   ( 21,  1, 68)  ( 10,  1, 12)  ( 11,  1, 54)  ( 11,  1, 42)  ( 11,  1, 69)
  1  0.1281E-03
   ( 11,  1, 56)

 MAXIMUM RESIDUAL FOR EACH ITERATION (1 INDICATES THE FIRST INNER ITERATION):

    RESIDUAL       RESIDUAL       RESIDUAL       RESIDUAL       RESIDUAL    
   LAYER,ROW,COL  LAYER,ROW,COL  LAYER,ROW,COL  LAYER,ROW,COL  LAYER,ROW,COL
 ---------------------------------------------------------------------------
  1 -0.4792E+05  0 -0.3840E+05  0   2846.      0   1822.      0   1479.    
   ( 21,  1, 87)  ( 21,  1, 87)  ( 21,  1, 88)  ( 20,  1, 86)  ( 20,  1, 86)
  1   1095.    
   ( 20,  1, 86)


 FLOW MODEL IS TRANSIENT
 FLOW MODEL CONTAINS CONSTANT-HEAD CELLS


 MAXIMUM STEPSIZE DURING WHICH ANY PARTICLE CANNOT MOVE MORE THAN ONE CELL
 =  15.13    (WHEN MIN. R.F.=1)  AT K=  18, I=   1, J=  91

 MAXIMUM STEPSIZE WHICH MEETS STABILITY CRITERION OF THE ADVECTION TERM
 (FOR PURE FINITE-DIFFERENCE OPTION, MIXELM=0) 
 =  8.916    (WHEN MIN. R.F.=1)  AT K=  16, I=   1, J=  90


 TOTAL NUMBER OF POINT SOURCES/SINKS PRESENT IN THE FLOW MODEL =    30

 MAXIMUM STEPSIZE WHICH MEETS STABILITY CRITERION OF THE SINK & SOURCE TERM
 =  12.31    (WHEN MIN. R.F.=1)  AT K=  17, I=   1, J=  91

 MAXIMUM STEPSIZE WHICH MEETS STABILITY CRITERION OF THE DISPERSION TERM
 =  4.680    (WHEN MIN. R.F.=1)  AT K=  16, I=   1, J=  89
     1 CALLS TO GCG PACKAGE FOR TRANSPORT TIME STEP 307 IN FLOW TIME STEP   1 STRESS PERIOD   1
     4 TOTAL ITERATIONS
0WARNING: NUMERICAL OSCILLATION ENCOUNTERED
 ONE OR MORE CELL CONCENTRATIONS LESS THAN CRHOREF
 SMALLEST DENSITY =  0.100E+04
 AT CELL (I,J,K) = (   1,  67,   8)

 
 SOLVING FOR HEAD 


     1 CALLS TO PCG ROUTINE FOR TIME STEP   1 IN STRESS PERIOD    1
     1 TOTAL ITERATIONS

 MAXIMUM HEAD CHANGE FOR EACH ITERATION (1 INDICATES THE FIRST INNER ITERATION):

    HEAD CHANGE    HEAD CHANGE    HEAD CHANGE    HEAD CHANGE    HEAD CHANGE 
   LAYER,ROW,COL  LAYER,ROW,COL  LAYER,ROW,COL  LAYER,ROW,COL  LAYER,ROW,COL
 ---------------------------------------------------------------------------
  1 -0.8079E-03
   ( 16,  1, 68)

 MAXIMUM RESIDUAL FOR EACH ITERATION (1 INDICATES THE FIRST INNER ITERATION):

    RESIDUAL       RESIDUAL       RESIDUAL       RESIDUAL       RESIDUAL    
   LAYER,ROW,COL  LAYER,ROW,COL  LAYER,ROW,COL  LAYER,ROW,COL  LAYER,ROW,COL
 ---------------------------------------------------------------------------
  1  -7588.    
   ( 19,  1, 86)


 FLOW MODEL IS TRANSIENT
 FLOW MODEL CONTAINS CONSTANT-HEAD CELLS


 MAXIMUM STEPSIZE DURING WHICH ANY PARTICLE CANNOT MOVE MORE THAN ONE CELL
 =  15.25    (WHEN MIN. R.F.=1)  AT K=  18, I=   1, J=  91

 MAXIMUM STEPSIZE WHICH MEETS STABILITY CRITERION OF THE ADVECTION TERM
 (FOR PURE FINITE-DIFFERENCE OPTION, MIXELM=0) 
 =  8.933    (WHEN MIN. R.F.=1)  AT K=  16, I=   1, J=  90


 TOTAL NUMBER OF POINT SOURCES/SINKS PRESENT IN THE FLOW MODEL =    30

 MAXIMUM STEPSIZE WHICH MEETS STABILITY CRITERION OF THE SINK & SOURCE TERM
 =  12.37    (WHEN MIN. R.F.=1)  AT K=  17, I=   1, J=  91

 MAXIMUM STEPSIZE WHICH MEETS STABILITY CRITERION OF THE DISPERSION TERM
 =  4.676    (WHEN MIN. R.F.=1)  AT K=  16, I=   1, J=  89
     1 CALLS TO GCG PACKAGE FOR TRANSPORT TIME STEP 308 IN FLOW TIME STEP   1 STRESS PERIOD   1
     4 TOTAL ITERATIONS
0WARNING: NUMERICAL OSCILLATION ENCOUNTERED
 ONE OR MORE CELL CONCENTRATIONS LESS THAN CRHOREF
 SMALLEST DENSITY =  0.100E+04
 AT CELL (I,J,K) = (   1,  67,   8)

 
 SOLVING FOR HEAD 


     2 CALLS TO PCG ROUTINE FOR TIME STEP   1 IN STRESS PERIOD    1
     6 TOTAL ITERATIONS

 MAXIMUM HEAD CHANGE FOR EACH ITERATION (1 INDICATES THE FIRST INNER ITERATION):

    HEAD CHANGE    HEAD CHANGE    HEAD CHANGE    HEAD CHANGE    HEAD CHANGE 
   LAYER,ROW,COL  LAYER,ROW,COL  LAYER,ROW,COL  LAYER,ROW,COL  LAYER,ROW,COL
 ---------------------------------------------------------------------------
  1  0.3462E-02  0 -0.2574E-02  0 -0.4098E-02  0  0.1560E-02  0  0.5358E-03
   ( 11,  1, 55)  ( 10,  1, 12)  ( 11,  1, 55)  ( 11,  1, 55)  ( 11,  1, 65)
  1 -0.2368E-03
   ( 11,  1, 65)

 MAXIMUM RESIDUAL FOR EACH ITERATION (1 INDICATES THE FIRST INNER ITERATION):

    RESIDUAL       RESIDUAL       RESIDUAL       RESIDUAL       RESIDUAL    
   LAYER,ROW,COL  LAYER,ROW,COL  LAYER,ROW,COL  LAYER,ROW,COL  LAYER,ROW,COL
 ---------------------------------------------------------------------------
  1 -0.5095E+05  0 -0.4070E+05  0  -4042.      0  -2705.      0  -1981.    
   ( 20,  1, 86)  ( 20,  1, 86)  ( 23,  1, 91)  ( 23,  1, 91)  ( 23,  1, 91)
  1  -1593.    
   ( 23,  1, 91)


 FLOW MODEL IS TRANSIENT
 FLOW MODEL CONTAINS CONSTANT-HEAD CELLS


 MAXIMUM STEPSIZE DURING WHICH ANY PARTICLE CANNOT MOVE MORE THAN ONE CELL
 =  15.26    (WHEN MIN. R.F.=1)  AT K=  18, I=   1, J=  91

 MAXIMUM STEPSIZE WHICH MEETS STABILITY CRITERION OF THE ADVECTION TERM
 (FOR PURE FINITE-DIFFERENCE OPTION, MIXELM=0) 
 =  8.910    (WHEN MIN. R.F.=1)  AT K=  16, I=   1, J=  90


 TOTAL NUMBER OF POINT SOURCES/SINKS PRESENT IN THE FLOW MODEL =    30

 MAXIMUM STEPSIZE WHICH MEETS STABILITY CRITERION OF THE SINK & SOURCE TERM
 =  12.36    (WHEN MIN. R.F.=1)  AT K=  17, I=   1, J=  91

 MAXIMUM STEPSIZE WHICH MEETS STABILITY CRITERION OF THE DISPERSION TERM
 =  4.671    (WHEN MIN. R.F.=1)  AT K=  16, I=   1, J=  89
     1 CALLS TO GCG PACKAGE FOR TRANSPORT TIME STEP 309 IN FLOW TIME STEP   1 STRESS PERIOD   1
     4 TOTAL ITERATIONS
0WARNING: NUMERICAL OSCILLATION ENCOUNTERED
 ONE OR MORE CELL CONCENTRATIONS LESS THAN CRHOREF
 SMALLEST DENSITY =  0.100E+04
 AT CELL (I,J,K) = (   1,  67,   8)

 
 SOLVING FOR HEAD 


     1 CALLS TO PCG ROUTINE FOR TIME STEP   1 IN STRESS PERIOD    1
     1 TOTAL ITERATIONS

 MAXIMUM HEAD CHANGE FOR EACH ITERATION (1 INDICATES THE FIRST INNER ITERATION):

    HEAD CHANGE    HEAD CHANGE    HEAD CHANGE    HEAD CHANGE    HEAD CHANGE 
   LAYER,ROW,COL  LAYER,ROW,COL  LAYER,ROW,COL  LAYER,ROW,COL  LAYER,ROW,COL
 ---------------------------------------------------------------------------
  1 -0.8773E-03
   ( 11,  1, 60)

 MAXIMUM RESIDUAL FOR EACH ITERATION (1 INDICATES THE FIRST INNER ITERATION):

    RESIDUAL       RESIDUAL       RESIDUAL       RESIDUAL       RESIDUAL    
   LAYER,ROW,COL  LAYER,ROW,COL  LAYER,ROW,COL  LAYER,ROW,COL  LAYER,ROW,COL
 ---------------------------------------------------------------------------
  1  -9340.    
   ( 18,  1, 86)


 FLOW MODEL IS TRANSIENT
 FLOW MODEL CONTAINS CONSTANT-HEAD CELLS


 MAXIMUM STEPSIZE DURING WHICH ANY PARTICLE CANNOT MOVE MORE THAN ONE CELL
 =  15.39    (WHEN MIN. R.F.=1)  AT K=  18, I=   1, J=  91

 MAXIMUM STEPSIZE WHICH MEETS STABILITY CRITERION OF THE ADVECTION TERM
 (FOR PURE FINITE-DIFFERENCE OPTION, MIXELM=0) 
 =  8.968    (WHEN MIN. R.F.=1)  AT K=  16, I=   1, J=  90


 TOTAL NUMBER OF POINT SOURCES/SINKS PRESENT IN THE FLOW MODEL =    30

 MAXIMUM STEPSIZE WHICH MEETS STABILITY CRITERION OF THE SINK & SOURCE TERM
 =  12.43    (WHEN MIN. R.F.=1)  AT K=  17, I=   1, J=  91

 MAXIMUM STEPSIZE WHICH MEETS STABILITY CRITERION OF THE DISPERSION TERM
 =  4.668    (WHEN MIN. R.F.=1)  AT K=  16, I=   1, J=  89
     1 CALLS TO GCG PACKAGE FOR TRANSPORT TIME STEP 310 IN FLOW TIME STEP   1 STRESS PERIOD   1
     4 TOTAL ITERATIONS
  MAXIMUM CONCENTRATION CHANGES FOR EACH ITERATION:
  MAX. CHANGE LAYER,ROW,COL MAX. CHANGE LAYER,ROW,COL MAX. CHANGE LAYER,ROW,COL MAX. CHANGE LAYER,ROW,COL MAX. CHANGE LAYER,ROW,COL
 ------------------------------------------------------------------------------------------------------------------------------------
   0.3283     ( 16,  1, 90)  0.6321E-03 ( 17,  1, 89)  0.1693E-04 ( 16,  1, 89)  0.1330E-06 ( 17,  1, 88)



 >>>>>>>>>>>>>>>>>>>>>>>>>>>>>>>>>>>>>>>>>>>>>>>>>>>>>>>FOR COMPONENT NO. 01<<<<<<<<<<<<<<<<<<<<<<<<<<<<<<<<<<<<<<<<<<<<<<<<<<<<<<<


                                            -------------------------------------------
                                                      TRANSPORT STEP NO.  310
                                            -------------------------------------------

 TOTAL ELAPSED TIME SINCE BEGINNING OF SIMULATION =   1983.543    D   
 .....................................................................

                     CUMMULATIVE MASS BUDGETS AT END OF TRANSPORT STEP  310, TIME STEP    1, STRESS PERIOD    1
                     ------------------------------------------------------------------------------------------

                                                             IN                           OUT
                                                      ----------------             ----------------
                               CONSTANT CONCENTRATION:    0.000000                    0.000000    
                                        CONSTANT HEAD:   0.4300176E+08              -0.4592248E+08
                                             RECHARGE:    0.000000                    0.000000    
                                MASS STORAGE (SOLUTE):   0.2625178E+08              -0.2333106E+08
                            ---------------------------------------------------------------------------
                                              [TOTAL]:   0.6925472E+08 KG           -0.6925471E+08 KG  

                                                          NET (IN - OUT):    1.538961    
                                                   DISCREPANCY (PERCENT):   0.2222174E-05
0WARNING: NUMERICAL OSCILLATION ENCOUNTERED
 ONE OR MORE CELL CONCENTRATIONS LESS THAN CRHOREF
 SMALLEST DENSITY =  0.100E+04
 AT CELL (I,J,K) = (   1,  67,   8)

 
 SOLVING FOR HEAD 


     2 CALLS TO PCG ROUTINE FOR TIME STEP   1 IN STRESS PERIOD    1
     6 TOTAL ITERATIONS

 MAXIMUM HEAD CHANGE FOR EACH ITERATION (1 INDICATES THE FIRST INNER ITERATION):

    HEAD CHANGE    HEAD CHANGE    HEAD CHANGE    HEAD CHANGE    HEAD CHANGE 
   LAYER,ROW,COL  LAYER,ROW,COL  LAYER,ROW,COL  LAYER,ROW,COL  LAYER,ROW,COL
 ---------------------------------------------------------------------------
  1  0.4785E-02  0 -0.3385E-02  0 -0.2829E-02  0 -0.1598E-02  0  0.8968E-03
   ( 11,  1, 60)  ( 11,  1, 60)  ( 10,  1, 12)  ( 11,  1, 42)  ( 11,  1, 69)
  1  0.4955E-03
   ( 11,  1, 55)

 MAXIMUM RESIDUAL FOR EACH ITERATION (1 INDICATES THE FIRST INNER ITERATION):

    RESIDUAL       RESIDUAL       RESIDUAL       RESIDUAL       RESIDUAL    
   LAYER,ROW,COL  LAYER,ROW,COL  LAYER,ROW,COL  LAYER,ROW,COL  LAYER,ROW,COL
 ---------------------------------------------------------------------------
  1 -0.6615E+05  0 -0.2819E+05  0   7355.      0   4537.      0   2635.    
   ( 19,  1, 86)  ( 19,  1, 86)  ( 23,  1, 92)  ( 23,  1, 92)  ( 23,  1, 92)
  1   2241.    
   ( 23,  1, 92)


 FLOW MODEL IS TRANSIENT
 FLOW MODEL CONTAINS CONSTANT-HEAD CELLS


 MAXIMUM STEPSIZE DURING WHICH ANY PARTICLE CANNOT MOVE MORE THAN ONE CELL
 =  15.74    (WHEN MIN. R.F.=1)  AT K=  18, I=   1, J=  91

 MAXIMUM STEPSIZE WHICH MEETS STABILITY CRITERION OF THE ADVECTION TERM
 (FOR PURE FINITE-DIFFERENCE OPTION, MIXELM=0) 
 =  8.998    (WHEN MIN. R.F.=1)  AT K=  16, I=   1, J=  90


 TOTAL NUMBER OF POINT SOURCES/SINKS PRESENT IN THE FLOW MODEL =    30

 MAXIMUM STEPSIZE WHICH MEETS STABILITY CRITERION OF THE SINK & SOURCE TERM
 =  12.67    (WHEN MIN. R.F.=1)  AT K=  17, I=   1, J=  91

 MAXIMUM STEPSIZE WHICH MEETS STABILITY CRITERION OF THE DISPERSION TERM
 =  4.649    (WHEN MIN. R.F.=1)  AT K=  16, I=   1, J=  89
     1 CALLS TO GCG PACKAGE FOR TRANSPORT TIME STEP 311 IN FLOW TIME STEP   1 STRESS PERIOD   1
     4 TOTAL ITERATIONS
0WARNING: NUMERICAL OSCILLATION ENCOUNTERED
 ONE OR MORE CELL CONCENTRATIONS LESS THAN CRHOREF
 SMALLEST DENSITY =  0.100E+04
 AT CELL (I,J,K) = (   1,  67,   8)

 
 SOLVING FOR HEAD 


     2 CALLS TO PCG ROUTINE FOR TIME STEP   1 IN STRESS PERIOD    1
     4 TOTAL ITERATIONS

 MAXIMUM HEAD CHANGE FOR EACH ITERATION (1 INDICATES THE FIRST INNER ITERATION):

    HEAD CHANGE    HEAD CHANGE    HEAD CHANGE    HEAD CHANGE    HEAD CHANGE 
   LAYER,ROW,COL  LAYER,ROW,COL  LAYER,ROW,COL  LAYER,ROW,COL  LAYER,ROW,COL
 ---------------------------------------------------------------------------
  1 -0.1426E-02  0  0.1837E-02  0  0.3972E-03  1 -0.3837E-03
   ( 11,  1, 55)  ( 11,  1, 55)  ( 10,  1, 12)  ( 11,  1, 55)

 MAXIMUM RESIDUAL FOR EACH ITERATION (1 INDICATES THE FIRST INNER ITERATION):

    RESIDUAL       RESIDUAL       RESIDUAL       RESIDUAL       RESIDUAL    
   LAYER,ROW,COL  LAYER,ROW,COL  LAYER,ROW,COL  LAYER,ROW,COL  LAYER,ROW,COL
 ---------------------------------------------------------------------------
  1  0.1086E+05  0  -4611.      0  -4391.      1  -4077.    
   ( 23,  1, 92)  ( 22,  1, 92)  ( 22,  1, 92)  ( 22,  1, 92)


 FLOW MODEL IS TRANSIENT
 FLOW MODEL CONTAINS CONSTANT-HEAD CELLS


 MAXIMUM STEPSIZE DURING WHICH ANY PARTICLE CANNOT MOVE MORE THAN ONE CELL
 =  15.52    (WHEN MIN. R.F.=1)  AT K=  18, I=   1, J=  91

 MAXIMUM STEPSIZE WHICH MEETS STABILITY CRITERION OF THE ADVECTION TERM
 (FOR PURE FINITE-DIFFERENCE OPTION, MIXELM=0) 
 =  8.971    (WHEN MIN. R.F.=1)  AT K=  16, I=   1, J=  90


 TOTAL NUMBER OF POINT SOURCES/SINKS PRESENT IN THE FLOW MODEL =    30

 MAXIMUM STEPSIZE WHICH MEETS STABILITY CRITERION OF THE SINK & SOURCE TERM
 =  12.56    (WHEN MIN. R.F.=1)  AT K=  17, I=   1, J=  91

 MAXIMUM STEPSIZE WHICH MEETS STABILITY CRITERION OF THE DISPERSION TERM
 =  4.663    (WHEN MIN. R.F.=1)  AT K=  16, I=   1, J=  89
     1 CALLS TO GCG PACKAGE FOR TRANSPORT TIME STEP 312 IN FLOW TIME STEP   1 STRESS PERIOD   1
     4 TOTAL ITERATIONS
0WARNING: NUMERICAL OSCILLATION ENCOUNTERED
 ONE OR MORE CELL CONCENTRATIONS LESS THAN CRHOREF
 SMALLEST DENSITY =  0.100E+04
 AT CELL (I,J,K) = (   1,  67,   7)

 
 SOLVING FOR HEAD 


     2 CALLS TO PCG ROUTINE FOR TIME STEP   1 IN STRESS PERIOD    1
     5 TOTAL ITERATIONS

 MAXIMUM HEAD CHANGE FOR EACH ITERATION (1 INDICATES THE FIRST INNER ITERATION):

    HEAD CHANGE    HEAD CHANGE    HEAD CHANGE    HEAD CHANGE    HEAD CHANGE 
   LAYER,ROW,COL  LAYER,ROW,COL  LAYER,ROW,COL  LAYER,ROW,COL  LAYER,ROW,COL
 ---------------------------------------------------------------------------
  1  0.2154E-02  0 -0.1891E-02  0  0.1940E-02  0 -0.9670E-03  1  0.6759E-03
   ( 10,  1, 12)  (  9,  1, 12)  ( 11,  1, 55)  ( 11,  1, 55)  ( 11,  1, 55)

 MAXIMUM RESIDUAL FOR EACH ITERATION (1 INDICATES THE FIRST INNER ITERATION):

    RESIDUAL       RESIDUAL       RESIDUAL       RESIDUAL       RESIDUAL    
   LAYER,ROW,COL  LAYER,ROW,COL  LAYER,ROW,COL  LAYER,ROW,COL  LAYER,ROW,COL
 ---------------------------------------------------------------------------
  1 -0.4726E+05  0 -0.1475E+05  0  -8203.      0  -5915.      1  -4720.    
   ( 23,  1, 90)  ( 21,  1, 91)  ( 21,  1, 91)  ( 21,  1, 91)  ( 21,  1, 91)


 FLOW MODEL IS TRANSIENT
 FLOW MODEL CONTAINS CONSTANT-HEAD CELLS


 MAXIMUM STEPSIZE DURING WHICH ANY PARTICLE CANNOT MOVE MORE THAN ONE CELL
 =  15.86    (WHEN MIN. R.F.=1)  AT K=  18, I=   1, J=  91

 MAXIMUM STEPSIZE WHICH MEETS STABILITY CRITERION OF THE ADVECTION TERM
 (FOR PURE FINITE-DIFFERENCE OPTION, MIXELM=0) 
 =  9.012    (WHEN MIN. R.F.=1)  AT K=  16, I=   1, J=  90


 TOTAL NUMBER OF POINT SOURCES/SINKS PRESENT IN THE FLOW MODEL =    30

 MAXIMUM STEPSIZE WHICH MEETS STABILITY CRITERION OF THE SINK & SOURCE TERM
 =  12.78    (WHEN MIN. R.F.=1)  AT K=  17, I=   1, J=  91

 MAXIMUM STEPSIZE WHICH MEETS STABILITY CRITERION OF THE DISPERSION TERM
 =  4.658    (WHEN MIN. R.F.=1)  AT K=  16, I=   1, J=  89
     1 CALLS TO GCG PACKAGE FOR TRANSPORT TIME STEP 313 IN FLOW TIME STEP   1 STRESS PERIOD   1
     4 TOTAL ITERATIONS
0WARNING: NUMERICAL OSCILLATION ENCOUNTERED
 ONE OR MORE CELL CONCENTRATIONS LESS THAN CRHOREF
 SMALLEST DENSITY =  0.100E+04
 AT CELL (I,J,K) = (   1,  67,   7)

 
 SOLVING FOR HEAD 


     2 CALLS TO PCG ROUTINE FOR TIME STEP   1 IN STRESS PERIOD    1
     4 TOTAL ITERATIONS

 MAXIMUM HEAD CHANGE FOR EACH ITERATION (1 INDICATES THE FIRST INNER ITERATION):

    HEAD CHANGE    HEAD CHANGE    HEAD CHANGE    HEAD CHANGE    HEAD CHANGE 
   LAYER,ROW,COL  LAYER,ROW,COL  LAYER,ROW,COL  LAYER,ROW,COL  LAYER,ROW,COL
 ---------------------------------------------------------------------------
  1 -0.2238E-02  0  0.1855E-02  0  0.8612E-03  1 -0.4848E-03
   ( 11,  1, 55)  ( 11,  1, 55)  ( 10,  1, 12)  ( 11,  1, 55)

 MAXIMUM RESIDUAL FOR EACH ITERATION (1 INDICATES THE FIRST INNER ITERATION):

    RESIDUAL       RESIDUAL       RESIDUAL       RESIDUAL       RESIDUAL    
   LAYER,ROW,COL  LAYER,ROW,COL  LAYER,ROW,COL  LAYER,ROW,COL  LAYER,ROW,COL
 ---------------------------------------------------------------------------
  1  0.1895E+05  0  0.1007E+05  0   7532.      1   6633.    
   ( 20,  1, 91)  ( 20,  1, 91)  ( 20,  1, 91)  ( 20,  1, 91)


 FLOW MODEL IS TRANSIENT
 FLOW MODEL CONTAINS CONSTANT-HEAD CELLS


 MAXIMUM STEPSIZE DURING WHICH ANY PARTICLE CANNOT MOVE MORE THAN ONE CELL
 =  15.72    (WHEN MIN. R.F.=1)  AT K=  18, I=   1, J=  91

 MAXIMUM STEPSIZE WHICH MEETS STABILITY CRITERION OF THE ADVECTION TERM
 (FOR PURE FINITE-DIFFERENCE OPTION, MIXELM=0) 
 =  8.991    (WHEN MIN. R.F.=1)  AT K=  16, I=   1, J=  90


 TOTAL NUMBER OF POINT SOURCES/SINKS PRESENT IN THE FLOW MODEL =    30

 MAXIMUM STEPSIZE WHICH MEETS STABILITY CRITERION OF THE SINK & SOURCE TERM
 =  12.69    (WHEN MIN. R.F.=1)  AT K=  17, I=   1, J=  91

 MAXIMUM STEPSIZE WHICH MEETS STABILITY CRITERION OF THE DISPERSION TERM
 =  4.666    (WHEN MIN. R.F.=1)  AT K=  16, I=   1, J=  89
     1 CALLS TO GCG PACKAGE FOR TRANSPORT TIME STEP 314 IN FLOW TIME STEP   1 STRESS PERIOD   1
     4 TOTAL ITERATIONS
  MAXIMUM CONCENTRATION CHANGES FOR EACH ITERATION:
  MAX. CHANGE LAYER,ROW,COL MAX. CHANGE LAYER,ROW,COL MAX. CHANGE LAYER,ROW,COL MAX. CHANGE LAYER,ROW,COL MAX. CHANGE LAYER,ROW,COL
 ------------------------------------------------------------------------------------------------------------------------------------
   0.2469     ( 16,  1, 90)  0.3631E-03 ( 17,  1, 89)  0.5298E-05 ( 16,  1, 89)  0.1975E-07 ( 17,  1, 89)
 UBUDSV SAVING "         STORAGE" ON UNIT 50 AT TIME STEP  1, STRESS PERIOD    1
 UBUDSV SAVING "   CONSTANT HEAD" ON UNIT 50 AT TIME STEP  1, STRESS PERIOD    1
 UBUDSV SAVING "FLOW RIGHT FACE " ON UNIT 50 AT TIME STEP  1, STRESS PERIOD    1
 UBUDSV SAVING "FLOW LOWER FACE " ON UNIT 50 AT TIME STEP  1, STRESS PERIOD    1
 UBUDSV SAVING "        RECHARGE" ON UNIT 51 AT TIME STEP  1, STRESS PERIOD    1
 UBUDSV SAVING "            DCDT" ON UNIT 50 AT TIME STEP  1, STRESS PERIOD    1



 >>>>>>>>>>>>>>>>>>>>>>>>>>>>>>>>>>>>>>>>>>>>>>>>>>>>>>>FOR COMPONENT NO. 01<<<<<<<<<<<<<<<<<<<<<<<<<<<<<<<<<<<<<<<<<<<<<<<<<<<<<<<


                                            -------------------------------------------
                                                      TRANSPORT STEP NO.  314
                                            -------------------------------------------

 TOTAL ELAPSED TIME SINCE BEGINNING OF SIMULATION =   2000.000    D   
 .....................................................................

                     CUMMULATIVE MASS BUDGETS AT END OF TRANSPORT STEP  314, TIME STEP    1, STRESS PERIOD    1
                     ------------------------------------------------------------------------------------------

                                                             IN                           OUT
                                                      ----------------             ----------------
                               CONSTANT CONCENTRATION:    0.000000                    0.000000    
                                        CONSTANT HEAD:   0.4366282E+08              -0.4657032E+08
                                             RECHARGE:    0.000000                    0.000000    
                                MASS STORAGE (SOLUTE):   0.2629653E+08              -0.2338903E+08
                            ---------------------------------------------------------------------------
                                              [TOTAL]:   0.6996053E+08 KG           -0.6996053E+08 KG  

                                                          NET (IN - OUT):    1.549727    
                                                   DISCREPANCY (PERCENT):   0.2215145E-05
0WARNING: NUMERICAL OSCILLATION ENCOUNTERED
 ONE OR MORE CELL CONCENTRATIONS LESS THAN CRHOREF
 SMALLEST DENSITY =  0.100E+04
 AT CELL (I,J,K) = (   1,  67,   7)


 HEAD WILL BE SAVED ON UNIT   30 AT END OF TIME STEP   1, STRESS PERIOD    1
1
  MASS BUDGET FOR ENTIRE MODEL AT END OF TIME STEP  1 IN STRESS PERIOD   1
  ------------------------------------------------------------------------------

     CUMULATIVE MASS      M       RATES FOR THIS TIME STEP      M/T
     ------------------                 ------------------------

           IN:                                      IN:
           ---                                      ---
             STORAGE =       86135.0215               STORAGE =          17.4862
       CONSTANT HEAD =  1281134195.4937         CONSTANT HEAD =     1182936.7296
            RECHARGE =   974400000.0000              RECHARGE =      487200.0000
                DCDT =    19121079.4028                  DCDT =        1611.1679

            TOTAL IN =  2274741409.9180              TOTAL IN =     1671765.3837

          OUT:                                     OUT:
          ----                                     ----
             STORAGE =     1514155.0754               STORAGE =           4.0114
       CONSTANT HEAD =  2255663901.9951         CONSTANT HEAD =     1668313.3228
            RECHARGE =           0.0000              RECHARGE =           0.0000
                DCDT =    17947804.8277                  DCDT =        2252.3173

           TOTAL OUT =  2275125861.8983             TOTAL OUT =     1670569.6515

            IN - OUT =     -384451.9802              IN - OUT =        1195.7321

 PERCENT DISCREPANCY =          -0.02     PERCENT DISCREPANCY =           0.07



0


          TIME SUMMARY AT END OF TRANSPORT STEP  314 IN TIME STEP    1 IN STRESS PERIOD   1
                    SECONDS     MINUTES      HOURS       DAYS        YEARS
                    -----------------------------------------------------------
  TRANS STEP LENGTH 2.58240E+05  4304.0      71.733      2.9889     8.18313E-03
   TIME STEP LENGTH 1.72800E+08 2.88000E+06  48000.      2000.0      5.4757    
 STRESS PERIOD TIME 1.72800E+08 2.88000E+06  48000.      2000.0      5.4757    
         TOTAL TIME 1.72800E+08 2.88000E+06  48000.      2000.0      5.4757    
1
